<?xml version="1.0" encoding="UTF-8"?>

<!-- generated on Mon 10 Feb 16:49:48 2020 by Eclipse SUMO netedit Version 1.2.0
<configuration xmlns:xsi="http://www.w3.org/2001/XMLSchema-instance" xsi:noNamespaceSchemaLocation="http://sumo.dlr.de/xsd/netconvertConfiguration.xsd">

    <input>
        <sumo-net-file value="/Users/jamie/Documents/University/ThirdYear/Project/GitHub/Sandbox/AdaptiveRoadRules/ARR1/Concept2(Workable)/PreFullImplementationTests/Incomplete/SPC&amp;ACLanePermissions/SPCACLanePermissions.net.xml"/>
    </input>

    <output>
        <output-file value="/Users/jamie/Documents/University/ThirdYear/Project/GitHub/Sandbox/AdaptiveRoadRules/ARR1/Concept2(Workable)/PreFullImplementationTests/Incomplete/SPC&amp;ACLanePermissions/SPCACLanePermissions.net.xml"/>
    </output>

    <processing>
        <geometry.max-grade.fix value="false"/>
        <offset.disable-normalization value="true"/>
        <lefthand value="false"/>
    </processing>

    <junctions>
        <no-turnarounds value="true"/>
        <junctions.corner-detail value="5"/>
        <junctions.limit-turn-speed value="5.5"/>
        <rectangular-lane-cut value="false"/>
    </junctions>

    <pedestrian>
        <walkingareas value="false"/>
    </pedestrian>

</configuration>
-->

<net version="1.1" junctionCornerDetail="5" limitTurnSpeed="5.50" xmlns:xsi="http://www.w3.org/2001/XMLSchema-instance" xsi:noNamespaceSchemaLocation="http://sumo.dlr.de/xsd/net_file.xsd">

    <location netOffset="0.00,0.00" convBoundary="-92.00,-92.00,92.00,92.00" origBoundary="-10000000000.00,-10000000000.00,10000000000.00,10000000000.00" projParameter="!"/>

    <edge id=":gneJ0_0" function="internal">
        <lane id=":gneJ0_0_0" index="0" speed="8.39" length="6.28" shape="-36.01,95.20 -37.61,95.05 -39.08,94.61 -40.44,93.88 -41.67,92.86"/>
    </edge>
    <edge id=":gneJ0_1" function="internal">
        <lane id=":gneJ0_1_0" index="0" allow="motorcycle custom1 custom2" speed="6.96" length="4.40" width="1.60" shape="-36.01,92.80 -37.13,92.70 -38.16,92.39 -39.11,91.88 -39.97,91.16"/>
    </edge>
    <edge id=":gneJ0_2" function="internal">
        <lane id=":gneJ0_2_0" index="0" speed="4.20" length="1.26" shape="-37.14,88.33 -36.90,88.54 -36.63,88.68 -36.33,88.77 -36.01,88.80"/>
    </edge>
    <edge id=":gneJ0_3" function="internal">
        <lane id=":gneJ0_3_0" index="0" allow="motorcycle custom1 custom2" speed="5.93" length="3.14" width="1.60" shape="-38.84,90.03 -38.22,90.54 -37.55,90.91 -36.81,91.13 -36.01,91.20"/>
    </edge>
    <edge id=":gneJ1_0" function="internal">
        <lane id=":gneJ1_0_0" index="0" speed="8.39" length="6.28" shape="-92.86,41.67 -93.88,40.44 -94.61,39.08 -95.05,37.61 -95.20,36.01"/>
    </edge>
    <edge id=":gneJ1_1" function="internal">
        <lane id=":gneJ1_1_0" index="0" allow="motorcycle custom1 custom2" speed="6.96" length="4.40" width="1.60" shape="-91.16,39.97 -91.88,39.11 -92.39,38.16 -92.70,37.13 -92.80,36.01"/>
    </edge>
    <edge id=":gneJ1_2" function="internal">
        <lane id=":gneJ1_2_0" index="0" speed="4.20" length="1.26" shape="-88.80,36.01 -88.77,36.33 -88.68,36.63 -88.54,36.90 -88.33,37.14"/>
    </edge>
    <edge id=":gneJ1_3" function="internal">
        <lane id=":gneJ1_3_0" index="0" allow="motorcycle custom1 custom2" speed="5.93" length="3.14" width="1.60" shape="-91.20,36.01 -91.13,36.81 -90.91,37.55 -90.54,38.22 -90.03,38.84"/>
    </edge>
    <edge id=":gneJ2_0" function="internal">
        <lane id=":gneJ2_0_0" index="0" speed="8.39" length="6.28" shape="-95.20,-36.01 -95.05,-37.61 -94.61,-39.08 -93.88,-40.44 -92.86,-41.67"/>
    </edge>
    <edge id=":gneJ2_1" function="internal">
        <lane id=":gneJ2_1_0" index="0" allow="motorcycle custom1 custom2" speed="6.96" length="4.40" width="1.60" shape="-92.80,-36.01 -92.70,-37.13 -92.39,-38.16 -91.88,-39.11 -91.16,-39.97"/>
    </edge>
    <edge id=":gneJ2_2" function="internal">
        <lane id=":gneJ2_2_0" index="0" speed="4.20" length="1.26" shape="-88.33,-37.14 -88.54,-36.90 -88.68,-36.63 -88.77,-36.33 -88.80,-36.01"/>
    </edge>
    <edge id=":gneJ2_3" function="internal">
        <lane id=":gneJ2_3_0" index="0" allow="motorcycle custom1 custom2" speed="5.93" length="3.14" width="1.60" shape="-90.03,-38.84 -90.54,-38.22 -90.91,-37.55 -91.13,-36.81 -91.20,-36.01"/>
    </edge>
    <edge id=":gneJ3_0" function="internal">
        <lane id=":gneJ3_0_0" index="0" speed="4.20" length="1.26" shape="-36.01,-88.80 -36.33,-88.77 -36.63,-88.68 -36.90,-88.54 -37.14,-88.33"/>
    </edge>
    <edge id=":gneJ3_1" function="internal">
        <lane id=":gneJ3_1_0" index="0" allow="motorcycle custom1 custom2" speed="5.93" length="3.14" width="1.60" shape="-36.01,-91.20 -36.81,-91.13 -37.55,-90.91 -38.22,-90.54 -38.84,-90.03"/>
    </edge>
    <edge id=":gneJ3_2" function="internal">
        <lane id=":gneJ3_2_0" index="0" speed="8.39" length="6.28" shape="-41.67,-92.86 -40.44,-93.88 -39.08,-94.61 -37.61,-95.05 -36.01,-95.20"/>
    </edge>
    <edge id=":gneJ3_3" function="internal">
        <lane id=":gneJ3_3_0" index="0" allow="motorcycle custom1 custom2" speed="6.96" length="4.40" width="1.60" shape="-39.97,-91.16 -39.11,-91.88 -38.16,-92.39 -37.13,-92.70 -36.01,-92.80"/>
    </edge>
    <edge id=":gneJ4_0" function="internal">
        <lane id=":gneJ4_0_0" index="0" speed="4.20" length="1.26" shape="37.14,-88.33 36.90,-88.54 36.63,-88.68 36.33,-88.77 36.01,-88.80"/>
    </edge>
    <edge id=":gneJ4_1" function="internal">
        <lane id=":gneJ4_1_0" index="0" allow="motorcycle custom1 custom2" speed="5.93" length="3.14" width="1.60" shape="38.84,-90.03 38.22,-90.54 37.55,-90.91 36.81,-91.13 36.01,-91.20"/>
    </edge>
    <edge id=":gneJ4_2" function="internal">
        <lane id=":gneJ4_2_0" index="0" speed="8.39" length="6.28" shape="36.01,-95.20 37.61,-95.05 39.08,-94.61 40.44,-93.88 41.67,-92.86"/>
    </edge>
    <edge id=":gneJ4_3" function="internal">
        <lane id=":gneJ4_3_0" index="0" allow="motorcycle custom1 custom2" speed="6.96" length="4.40" width="1.60" shape="36.01,-92.80 37.13,-92.70 38.16,-92.39 39.11,-91.88 39.97,-91.16"/>
    </edge>
    <edge id=":gneJ6_0" function="internal">
        <lane id=":gneJ6_0_0" index="0" speed="4.20" length="1.26" shape="88.80,-36.01 88.77,-36.33 88.68,-36.63 88.54,-36.90 88.33,-37.14"/>
    </edge>
    <edge id=":gneJ6_1" function="internal">
        <lane id=":gneJ6_1_0" index="0" allow="motorcycle custom1 custom2" speed="5.93" length="3.14" width="1.60" shape="91.20,-36.01 91.13,-36.81 90.91,-37.55 90.54,-38.22 90.03,-38.84"/>
    </edge>
    <edge id=":gneJ6_2" function="internal">
        <lane id=":gneJ6_2_0" index="0" speed="8.46" length="6.40" shape="92.86,-41.67 94.14,-40.30 94.84,-39.18 95.14,-37.88 95.20,-36.01"/>
    </edge>
    <edge id=":gneJ6_3" function="internal">
        <lane id=":gneJ6_3_0" index="0" allow="motorcycle custom1 custom2" speed="6.96" length="4.40" width="1.60" shape="91.16,-39.97 91.88,-39.11 92.39,-38.16 92.70,-37.13 92.80,-36.01"/>
    </edge>
    <edge id=":gneJ7_0" function="internal">
        <lane id=":gneJ7_0_0" index="0" speed="8.39" length="6.28" shape="95.20,36.01 95.05,37.61 94.61,39.08 93.88,40.44 92.86,41.67"/>
    </edge>
    <edge id=":gneJ7_1" function="internal">
        <lane id=":gneJ7_1_0" index="0" allow="motorcycle custom1 custom2" speed="6.96" length="4.40" width="1.60" shape="92.80,36.01 92.70,37.13 92.39,38.16 91.88,39.11 91.16,39.97"/>
    </edge>
    <edge id=":gneJ7_2" function="internal">
        <lane id=":gneJ7_2_0" index="0" speed="4.20" length="1.26" shape="88.33,37.14 88.54,36.90 88.68,36.63 88.77,36.33 88.80,36.01"/>
    </edge>
    <edge id=":gneJ7_3" function="internal">
        <lane id=":gneJ7_3_0" index="0" allow="motorcycle custom1 custom2" speed="5.93" length="3.14" width="1.60" shape="90.03,38.84 90.54,38.22 90.91,37.55 91.13,36.81 91.20,36.01"/>
    </edge>
    <edge id=":gneJ8_0" function="internal">
        <lane id=":gneJ8_0_0" index="0" speed="8.39" length="6.28" shape="41.67,92.86 40.44,93.88 39.08,94.61 37.61,95.05 36.01,95.20"/>
    </edge>
    <edge id=":gneJ8_1" function="internal">
        <lane id=":gneJ8_1_0" index="0" allow="motorcycle custom1 custom2" speed="6.96" length="4.40" width="1.60" shape="39.97,91.16 39.11,91.88 38.16,92.39 37.13,92.70 36.01,92.80"/>
    </edge>
    <edge id=":gneJ8_2" function="internal">
        <lane id=":gneJ8_2_0" index="0" speed="4.20" length="1.26" shape="36.01,88.80 36.33,88.77 36.63,88.68 36.90,88.54 37.14,88.33"/>
    </edge>
    <edge id=":gneJ8_3" function="internal">
        <lane id=":gneJ8_3_0" index="0" allow="motorcycle custom1 custom2" speed="5.93" length="3.14" width="1.60" shape="36.01,91.20 36.81,91.13 37.55,90.91 38.22,90.54 38.84,90.03"/>
    </edge>

    <edge id="-gneE0" from="gneJ1" to="gneJ0" priority="-1">
        <lane id="-gneE0_0" index="0" speed="13.89" length="72.39" shape="-88.33,37.14 -37.14,88.33"/>
        <lane id="-gneE0_1" index="1" allow="motorcycle custom1 custom2" speed="13.89" length="72.39" width="1.60" shape="-90.03,38.84 -38.84,90.03"/>
    </edge>
    <edge id="-gneE1" from="gneJ2" to="gneJ1" priority="-1">
        <lane id="-gneE1_0" index="0" speed="13.89" length="72.02" shape="-88.80,-36.01 -88.80,36.01"/>
        <lane id="-gneE1_1" index="1" allow="motorcycle custom1 custom2" speed="13.89" length="72.02" width="1.60" shape="-91.20,-36.01 -91.20,36.01"/>
    </edge>
    <edge id="-gneE2" from="gneJ3" to="gneJ2" priority="-1">
        <lane id="-gneE2_0" index="0" speed="13.89" length="72.39" shape="-37.14,-88.33 -88.33,-37.14"/>
        <lane id="-gneE2_1" index="1" allow="motorcycle custom1 custom2" speed="13.89" length="72.39" width="1.60" shape="-38.84,-90.03 -90.03,-38.84"/>
    </edge>
    <edge id="-gneE3" from="gneJ4" to="gneJ3" priority="-1">
        <lane id="-gneE3_0" index="0" speed="13.89" length="72.02" shape="36.01,-88.80 -36.01,-88.80"/>
        <lane id="-gneE3_1" index="1" allow="motorcycle custom1 custom2" speed="13.89" length="72.02" width="1.60" shape="36.01,-91.20 -36.01,-91.20"/>
    </edge>
    <edge id="-gneE6" from="gneJ7" to="gneJ6" priority="-1">
        <lane id="-gneE6_0" index="0" speed="13.89" length="72.02" shape="88.80,36.01 88.80,-36.01"/>
        <lane id="-gneE6_1" index="1" allow="motorcycle custom1 custom2" speed="13.89" length="72.02" width="1.60" shape="91.20,36.01 91.20,-36.01"/>
    </edge>
    <edge id="-gneE7" from="gneJ8" to="gneJ7" priority="-1">
        <lane id="-gneE7_0" index="0" speed="13.89" length="72.39" shape="37.14,88.33 88.33,37.14"/>
        <lane id="-gneE7_1" index="1" allow="motorcycle custom1 custom2" speed="13.89" length="72.39" width="1.60" shape="38.84,90.03 90.03,38.84"/>
    </edge>
    <edge id="-gneE8" from="gneJ0" to="gneJ8" priority="-1">
        <lane id="-gneE8_0" index="0" speed="13.89" length="72.02" shape="-36.01,88.80 36.01,88.80"/>
        <lane id="-gneE8_1" index="1" allow="motorcycle custom1 custom2" speed="13.89" length="72.02" width="1.60" shape="-36.01,91.20 36.01,91.20"/>
    </edge>
    <edge id="-gneE9" from="gneJ4" to="gneJ6" priority="-1">
        <lane id="-gneE9_0" index="0" speed="13.89" length="72.39" shape="41.67,-92.86 92.86,-41.67"/>
        <lane id="-gneE9_1" index="1" allow="motorcycle custom1 custom2" speed="13.89" length="72.39" width="1.60" shape="39.97,-91.16 91.16,-39.97"/>
    </edge>
    <edge id="gneE0" from="gneJ0" to="gneJ1" priority="-1">
        <lane id="gneE0_0" index="0" speed="13.89" length="72.39" shape="-41.67,92.86 -92.86,41.67"/>
        <lane id="gneE0_1" index="1" allow="motorcycle custom1 custom2" speed="13.89" length="72.39" width="1.60" shape="-39.97,91.16 -91.16,39.97"/>
    </edge>
    <edge id="gneE1" from="gneJ1" to="gneJ2" priority="-1">
        <lane id="gneE1_0" index="0" speed="13.89" length="72.02" shape="-95.20,36.01 -95.20,-36.01"/>
        <lane id="gneE1_1" index="1" allow="motorcycle custom1 custom2" speed="13.89" length="72.02" width="1.60" shape="-92.80,36.01 -92.80,-36.01"/>
    </edge>
    <edge id="gneE2" from="gneJ2" to="gneJ3" priority="-1">
        <lane id="gneE2_0" index="0" speed="13.89" length="72.39" shape="-92.86,-41.67 -41.67,-92.86"/>
        <lane id="gneE2_1" index="1" allow="motorcycle custom1 custom2" speed="13.89" length="72.39" width="1.60" shape="-91.16,-39.97 -39.97,-91.16"/>
    </edge>
    <edge id="gneE3" from="gneJ3" to="gneJ4" priority="-1">
        <lane id="gneE3_0" index="0" speed="13.89" length="72.02" shape="-36.01,-95.20 36.01,-95.20"/>
        <lane id="gneE3_1" index="1" allow="motorcycle custom1 custom2" speed="13.89" length="72.02" width="1.60" shape="-36.01,-92.80 36.01,-92.80"/>
    </edge>
    <edge id="gneE6" from="gneJ6" to="gneJ7" priority="-1">
        <lane id="gneE6_0" index="0" speed="13.89" length="72.02" shape="95.20,-36.01 95.20,36.01"/>
        <lane id="gneE6_1" index="1" allow="motorcycle custom1 custom2" speed="13.89" length="72.02" width="1.60" shape="92.80,-36.01 92.80,36.01"/>
    </edge>
    <edge id="gneE7" from="gneJ7" to="gneJ8" priority="-1">
        <lane id="gneE7_0" index="0" speed="13.89" length="72.39" shape="92.86,41.67 41.67,92.86"/>
        <lane id="gneE7_1" index="1" allow="motorcycle custom1 custom2" speed="13.89" length="72.39" width="1.60" shape="91.16,39.97 39.97,91.16"/>
    </edge>
    <edge id="gneE8" from="gneJ8" to="gneJ0" priority="-1">
        <lane id="gneE8_0" index="0" speed="13.89" length="72.02" shape="36.01,95.20 -36.01,95.20"/>
        <lane id="gneE8_1" index="1" allow="motorcycle custom1 custom2" speed="13.89" length="72.02" width="1.60" shape="36.01,92.80 -36.01,92.80"/>
    </edge>
    <edge id="gneE9" from="gneJ6" to="gneJ4" priority="-1">
        <lane id="gneE9_0" index="0" speed="13.89" length="72.39" shape="88.33,-37.14 37.14,-88.33"/>
        <lane id="gneE9_1" index="1" allow="motorcycle custom1 custom2" speed="13.89" length="72.39" width="1.60" shape="90.03,-38.84 38.84,-90.03"/>
    </edge>

    <junction id="gneJ0" type="priority" x="-38.00" y="92.00" incLanes="gneE8_0 gneE8_1 -gneE0_0 -gneE0_1" intLanes=":gneJ0_0_0 :gneJ0_1_0 :gneJ0_2_0 :gneJ0_3_0" shape="-36.01,96.80 -36.01,87.20 -42.80,93.99 -40.80,95.55 -39.70,96.10 -38.53,96.49 -37.30,96.72">
        <request index="0" response="0000" foes="0000" cont="0"/>
        <request index="1" response="0000" foes="0000" cont="0"/>
        <request index="2" response="0000" foes="0000" cont="0"/>
        <request index="3" response="0000" foes="0000" cont="0"/>
    </junction>
    <junction id="gneJ1" type="priority" x="-92.00" y="38.00" incLanes="gneE0_0 gneE0_1 -gneE1_0 -gneE1_1" intLanes=":gneJ1_0_0 :gneJ1_1_0 :gneJ1_2_0 :gneJ1_3_0" shape="-93.99,42.80 -87.20,36.01 -96.80,36.01 -96.65,38.83 -96.37,39.81 -95.87,40.70 -95.10,41.65">
        <request index="0" response="0000" foes="0000" cont="0"/>
        <request index="1" response="0000" foes="0000" cont="0"/>
        <request index="2" response="0000" foes="0000" cont="0"/>
        <request index="3" response="0000" foes="0000" cont="0"/>
    </junction>
    <junction id="gneJ2" type="priority" x="-92.00" y="-38.00" incLanes="gneE1_0 gneE1_1 -gneE2_0 -gneE2_1" intLanes=":gneJ2_0_0 :gneJ2_1_0 :gneJ2_2_0 :gneJ2_3_0" shape="-96.80,-36.01 -87.20,-36.01 -93.99,-42.80 -95.55,-40.80 -96.10,-39.70 -96.49,-38.53 -96.72,-37.30">
        <request index="0" response="0000" foes="0000" cont="0"/>
        <request index="1" response="0000" foes="0000" cont="0"/>
        <request index="2" response="0000" foes="0000" cont="0"/>
        <request index="3" response="0000" foes="0000" cont="0"/>
    </junction>
    <junction id="gneJ3" type="priority" x="-38.00" y="-92.00" incLanes="-gneE3_0 -gneE3_1 gneE2_0 gneE2_1" intLanes=":gneJ3_0_0 :gneJ3_1_0 :gneJ3_2_0 :gneJ3_3_0" shape="-36.01,-87.20 -36.01,-96.80 -38.53,-96.49 -39.70,-96.10 -40.80,-95.55 -41.83,-94.85 -42.80,-93.99">
        <request index="0" response="0000" foes="0000" cont="0"/>
        <request index="1" response="0000" foes="0000" cont="0"/>
        <request index="2" response="0000" foes="0000" cont="0"/>
        <request index="3" response="0000" foes="0000" cont="0"/>
    </junction>
    <junction id="gneJ4" type="priority" x="38.00" y="-92.00" incLanes="gneE9_0 gneE9_1 gneE3_0 gneE3_1" intLanes=":gneJ4_0_0 :gneJ4_1_0 :gneJ4_2_0 :gneJ4_3_0" shape="36.01,-87.20 42.80,-93.99 40.80,-95.55 39.70,-96.10 38.53,-96.49 37.30,-96.72 36.01,-96.80">
        <request index="0" response="0000" foes="0000" cont="0"/>
        <request index="1" response="0000" foes="0000" cont="0"/>
        <request index="2" response="0000" foes="0000" cont="0"/>
        <request index="3" response="0000" foes="0000" cont="0"/>
    </junction>
    <junction id="gneJ6" type="priority" x="92.00" y="-38.00" incLanes="-gneE6_0 -gneE6_1 -gneE9_0 -gneE9_1" intLanes=":gneJ6_0_0 :gneJ6_1_0 :gneJ6_2_0 :gneJ6_3_0" shape="87.20,-36.01 96.80,-36.01 96.49,-38.53 96.10,-39.70 95.55,-40.80 94.85,-41.83 93.99,-42.80">
        <request index="0" response="0000" foes="0000" cont="0"/>
        <request index="1" response="0000" foes="0000" cont="0"/>
        <request index="2" response="0000" foes="0000" cont="0"/>
        <request index="3" response="0000" foes="0000" cont="0"/>
    </junction>
    <junction id="gneJ7" type="priority" x="92.00" y="38.00" incLanes="gneE6_0 gneE6_1 -gneE7_0 -gneE7_1" intLanes=":gneJ7_0_0 :gneJ7_1_0 :gneJ7_2_0 :gneJ7_3_0" shape="96.80,36.01 87.20,36.01 93.99,42.80 95.55,40.80 96.10,39.70 96.49,38.53 96.72,37.30">
        <request index="0" response="0000" foes="0000" cont="0"/>
        <request index="1" response="0000" foes="0000" cont="0"/>
        <request index="2" response="0000" foes="0000" cont="0"/>
        <request index="3" response="0000" foes="0000" cont="0"/>
    </junction>
    <junction id="gneJ8" type="priority" x="38.00" y="92.00" incLanes="gneE7_0 gneE7_1 -gneE8_0 -gneE8_1" intLanes=":gneJ8_0_0 :gneJ8_1_0 :gneJ8_2_0 :gneJ8_3_0" shape="42.80,93.99 36.01,87.20 36.01,96.80 38.83,96.65 39.81,96.37 40.70,95.87 41.65,95.10">
        <request index="0" response="0000" foes="0000" cont="0"/>
        <request index="1" response="0000" foes="0000" cont="0"/>
        <request index="2" response="0000" foes="0000" cont="0"/>
        <request index="3" response="0000" foes="0000" cont="0"/>
    </junction>

    <connection from="-gneE0" to="-gneE8" fromLane="0" toLane="0" via=":gneJ0_2_0" dir="r" state="M"/>
    <connection from="-gneE0" to="-gneE8" fromLane="1" toLane="1" via=":gneJ0_3_0" dir="r" state="M"/>
    <connection from="-gneE1" to="-gneE0" fromLane="0" toLane="0" via=":gneJ1_2_0" dir="r" state="M"/>
    <connection from="-gneE1" to="-gneE0" fromLane="1" toLane="1" via=":gneJ1_3_0" dir="r" state="M"/>
    <connection from="-gneE2" to="-gneE1" fromLane="0" toLane="0" via=":gneJ2_2_0" dir="r" state="M"/>
    <connection from="-gneE2" to="-gneE1" fromLane="1" toLane="1" via=":gneJ2_3_0" dir="r" state="M"/>
    <connection from="-gneE3" to="-gneE2" fromLane="0" toLane="0" via=":gneJ3_0_0" dir="r" state="M"/>
    <connection from="-gneE3" to="-gneE2" fromLane="1" toLane="1" via=":gneJ3_1_0" dir="r" state="M"/>
    <connection from="-gneE6" to="gneE9" fromLane="0" toLane="0" via=":gneJ6_0_0" dir="r" state="M"/>
    <connection from="-gneE6" to="gneE9" fromLane="1" toLane="1" via=":gneJ6_1_0" dir="r" state="M"/>
    <connection from="-gneE7" to="-gneE6" fromLane="0" toLane="0" via=":gneJ7_2_0" dir="r" state="M"/>
    <connection from="-gneE7" to="-gneE6" fromLane="1" toLane="1" via=":gneJ7_3_0" dir="r" state="M"/>
    <connection from="-gneE8" to="-gneE7" fromLane="0" toLane="0" via=":gneJ8_2_0" dir="r" state="M"/>
    <connection from="-gneE8" to="-gneE7" fromLane="1" toLane="1" via=":gneJ8_3_0" dir="r" state="M"/>
    <connection from="-gneE9" to="gneE6" fromLane="0" toLane="0" via=":gneJ6_2_0" dir="l" state="M"/>
    <connection from="-gneE9" to="gneE6" fromLane="1" toLane="1" via=":gneJ6_3_0" dir="l" state="M"/>
    <connection from="gneE0" to="gneE1" fromLane="0" toLane="0" via=":gneJ1_0_0" dir="l" state="M"/>
    <connection from="gneE0" to="gneE1" fromLane="1" toLane="1" via=":gneJ1_1_0" dir="l" state="M"/>
    <connection from="gneE1" to="gneE2" fromLane="0" toLane="0" via=":gneJ2_0_0" dir="l" state="M"/>
    <connection from="gneE1" to="gneE2" fromLane="1" toLane="1" via=":gneJ2_1_0" dir="l" state="M"/>
    <connection from="gneE2" to="gneE3" fromLane="0" toLane="0" via=":gneJ3_2_0" dir="l" state="M"/>
    <connection from="gneE2" to="gneE3" fromLane="1" toLane="1" via=":gneJ3_3_0" dir="l" state="M"/>
    <connection from="gneE3" to="-gneE9" fromLane="0" toLane="0" via=":gneJ4_2_0" dir="l" state="M"/>
    <connection from="gneE3" to="-gneE9" fromLane="1" toLane="1" via=":gneJ4_3_0" dir="l" state="M"/>
    <connection from="gneE6" to="gneE7" fromLane="0" toLane="0" via=":gneJ7_0_0" dir="l" state="M"/>
    <connection from="gneE6" to="gneE7" fromLane="1" toLane="1" via=":gneJ7_1_0" dir="l" state="M"/>
    <connection from="gneE7" to="gneE8" fromLane="0" toLane="0" via=":gneJ8_0_0" dir="l" state="M"/>
    <connection from="gneE7" to="gneE8" fromLane="1" toLane="1" via=":gneJ8_1_0" dir="l" state="M"/>
    <connection from="gneE8" to="gneE0" fromLane="0" toLane="0" via=":gneJ0_0_0" dir="l" state="M"/>
    <connection from="gneE8" to="gneE0" fromLane="1" toLane="1" via=":gneJ0_1_0" dir="l" state="M"/>
    <connection from="gneE9" to="-gneE3" fromLane="0" toLane="0" via=":gneJ4_0_0" dir="r" state="M"/>
    <connection from="gneE9" to="-gneE3" fromLane="1" toLane="1" via=":gneJ4_1_0" dir="r" state="M"/>

    <connection from=":gneJ0_0" to="gneE0" fromLane="0" toLane="0" dir="l" state="M"/>
    <connection from=":gneJ0_1" to="gneE0" fromLane="0" toLane="1" dir="l" state="M"/>
    <connection from=":gneJ0_2" to="-gneE8" fromLane="0" toLane="0" dir="r" state="M"/>
    <connection from=":gneJ0_3" to="-gneE8" fromLane="0" toLane="1" dir="r" state="M"/>
    <connection from=":gneJ1_0" to="gneE1" fromLane="0" toLane="0" dir="l" state="M"/>
    <connection from=":gneJ1_1" to="gneE1" fromLane="0" toLane="1" dir="l" state="M"/>
    <connection from=":gneJ1_2" to="-gneE0" fromLane="0" toLane="0" dir="r" state="M"/>
    <connection from=":gneJ1_3" to="-gneE0" fromLane="0" toLane="1" dir="r" state="M"/>
    <connection from=":gneJ2_0" to="gneE2" fromLane="0" toLane="0" dir="l" state="M"/>
    <connection from=":gneJ2_1" to="gneE2" fromLane="0" toLane="1" dir="l" state="M"/>
    <connection from=":gneJ2_2" to="-gneE1" fromLane="0" toLane="0" dir="r" state="M"/>
    <connection from=":gneJ2_3" to="-gneE1" fromLane="0" toLane="1" dir="r" state="M"/>
    <connection from=":gneJ3_0" to="-gneE2" fromLane="0" toLane="0" dir="r" state="M"/>
    <connection from=":gneJ3_1" to="-gneE2" fromLane="0" toLane="1" dir="r" state="M"/>
    <connection from=":gneJ3_2" to="gneE3" fromLane="0" toLane="0" dir="l" state="M"/>
    <connection from=":gneJ3_3" to="gneE3" fromLane="0" toLane="1" dir="l" state="M"/>
    <connection from=":gneJ4_0" to="-gneE3" fromLane="0" toLane="0" dir="r" state="M"/>
    <connection from=":gneJ4_1" to="-gneE3" fromLane="0" toLane="1" dir="r" state="M"/>
    <connection from=":gneJ4_2" to="-gneE9" fromLane="0" toLane="0" dir="l" state="M"/>
    <connection from=":gneJ4_3" to="-gneE9" fromLane="0" toLane="1" dir="l" state="M"/>
    <connection from=":gneJ6_0" to="gneE9" fromLane="0" toLane="0" dir="r" state="M"/>
    <connection from=":gneJ6_1" to="gneE9" fromLane="0" toLane="1" dir="r" state="M"/>
    <connection from=":gneJ6_2" to="gneE6" fromLane="0" toLane="0" dir="l" state="M"/>
    <connection from=":gneJ6_3" to="gneE6" fromLane="0" toLane="1" dir="l" state="M"/>
    <connection from=":gneJ7_0" to="gneE7" fromLane="0" toLane="0" dir="l" state="M"/>
    <connection from=":gneJ7_1" to="gneE7" fromLane="0" toLane="1" dir="l" state="M"/>
    <connection from=":gneJ7_2" to="-gneE6" fromLane="0" toLane="0" dir="r" state="M"/>
    <connection from=":gneJ7_3" to="-gneE6" fromLane="0" toLane="1" dir="r" state="M"/>
    <connection from=":gneJ8_0" to="gneE8" fromLane="0" toLane="0" dir="l" state="M"/>
    <connection from=":gneJ8_1" to="gneE8" fromLane="0" toLane="1" dir="l" state="M"/>
    <connection from=":gneJ8_2" to="-gneE7" fromLane="0" toLane="0" dir="r" state="M"/>
    <connection from=":gneJ8_3" to="-gneE7" fromLane="0" toLane="1" dir="r" state="M"/>

</net>
