<?xml version="1.0" encoding="UTF-8"?>

<!-- generated on Mon 10 Feb 16:21:52 2020 by Eclipse SUMO netedit Version 1.2.0
<configuration xmlns:xsi="http://www.w3.org/2001/XMLSchema-instance" xsi:noNamespaceSchemaLocation="http://sumo.dlr.de/xsd/netconvertConfiguration.xsd">

    <input>
        <sumo-net-file value="/Users/jamie/Documents/University/ThirdYear/Project/GitHub/Sandbox/AdaptiveRoadRules/ARR1/Concept2(Workable)/PreFullImplementationTests/Incomplete/SPC&amp;ACLanePermissions/SPCACLanePermissions.net.xml"/>
    </input>

    <output>
        <output-file value="/Users/jamie/Documents/University/ThirdYear/Project/GitHub/Sandbox/AdaptiveRoadRules/ARR1/Concept2(Workable)/PreFullImplementationTests/Incomplete/SPC&amp;ACLanePermissions/SPCACLanePermissions.net.xml"/>
    </output>

    <processing>
        <geometry.max-grade.fix value="false"/>
        <offset.disable-normalization value="true"/>
        <lefthand value="false"/>
    </processing>

    <junctions>
        <no-turnarounds value="true"/>
        <junctions.corner-detail value="5"/>
        <junctions.limit-turn-speed value="5.5"/>
        <rectangular-lane-cut value="false"/>
    </junctions>

    <pedestrian>
        <walkingareas value="false"/>
    </pedestrian>

    <netedit>
        <route-files value="/Users/jamie/Documents/University/ThirdYear/Project/GitHub/Sandbox/AdaptiveRoadRules/ARR1/Concept2(Workable)/PreFullImplementationTests/Incomplete/SPC&amp;ACLanePermissions/SPCACLanePermissions.rou.xml"/>
    </netedit>

</configuration>
-->

<routes xmlns:xsi="http://www.w3.org/2001/XMLSchema-instance" xsi:noNamespaceSchemaLocation="http://sumo.dlr.de/xsd/routes_file.xsd">
   
   <vType id="type1" accel="2.8" decel="4.5" sigma="0.5" maxSpeed="50" vClass="motorcycle" guiShape="evehicle" probability="3">
        <param key="lcSublane" value="200000000000000000000"/>
        <param key="lcPushy" value="1"/>
    </vType>        

    <vType id="type2" vClass="passenger" accel="0.8" maxSpeed="30" probability="0.7"/>

    <vTypeDistribution id="typedlist1" vTypes="type1 type2"/>
   
    <route id="route_1" edges="-gneE1 -gneE0 -gneE8 -gneE7 -gneE6 gneE9 -gneE3 -gneE2 -gneE1" color="blue"/>
    <route id="route_2" edges="gneE1 gneE2 gneE3 -gneE9 gneE6 gneE7 gneE8 gneE0 gneE1" color="blue"/>
    <vehicle id="vehicle_0"  type="typedlist1" depart="0.00" route="route_1"/>
    <vehicle id="vehicle_1"  type="typedlist1" depart="0.00" route="route_1"/>
    <vehicle id="vehicle_10"  type="typedlist1" depart="0.00" route="route_1"/>
    <vehicle id="vehicle_11"  type="typedlist1" depart="0.00" route="route_1"/>
    <vehicle id="vehicle_12"  type="typedlist1" depart="0.00" route="route_1"/>
    <vehicle id="vehicle_13"  type="typedlist1" depart="0.00" route="route_1"/>
    <vehicle id="vehicle_14"  type="typedlist1" depart="0.00" route="route_1"/>
    <vehicle id="vehicle_15"  type="typedlist1" depart="0.00" route="route_1"/>
    <vehicle id="vehicle_16"  type="typedlist1" depart="0.00" route="route_1"/>
    <vehicle id="vehicle_17"  type="typedlist1" depart="0.00" route="route_1"/>
    <vehicle id="vehicle_18"  type="typedlist1" depart="0.00" route="route_2"/>
    <vehicle id="vehicle_19"  type="typedlist1" depart="0.00" route="route_2"/>
    <vehicle id="vehicle_2"  type="typedlist1" depart="0.00" route="route_1"/>
    <vehicle id="vehicle_20"  type="typedlist1" depart="0.00" route="route_2"/>
    <vehicle id="vehicle_21"  type="typedlist1" depart="0.00" route="route_2"/>
    <vehicle id="vehicle_22"  type="typedlist1" depart="0.00" route="route_2"/>
    <vehicle id="vehicle_23"  type="typedlist1" depart="0.00" route="route_2"/>
    <vehicle id="vehicle_24"  type="typedlist1" depart="0.00" route="route_2"/>
    <vehicle id="vehicle_25"  type="typedlist1" depart="0.00" route="route_2"/>
    <vehicle id="vehicle_26"  type="typedlist1" depart="0.00" route="route_2"/>
    <vehicle id="vehicle_27"  type="typedlist1" depart="0.00" route="route_2"/>
    <vehicle id="vehicle_28"  type="typedlist1" depart="0.00" route="route_2"/>
    <vehicle id="vehicle_29"  type="typedlist1" depart="0.00" route="route_2"/>
    <vehicle id="vehicle_3"  type="typedlist1" depart="0.00" route="route_1"/>
    <vehicle id="vehicle_30"  type="typedlist1" depart="0.00" route="route_2"/>
    <vehicle id="vehicle_31"  type="typedlist1" depart="0.00" route="route_2"/>
    <vehicle id="vehicle_32"  type="typedlist1" depart="0.00" route="route_2"/>
    <vehicle id="vehicle_33"  type="typedlist1" depart="0.00" route="route_2"/>
    <vehicle id="vehicle_34"  type="typedlist1" depart="0.00" route="route_2"/>
    <vehicle id="vehicle_35"  type="typedlist1" depart="0.00" route="route_2"/>
    <vehicle id="vehicle_4"  type="typedlist1" depart="0.00" route="route_1"/>
    <vehicle id="vehicle_5"  type="typedlist1" depart="0.00" route="route_1"/>
    <vehicle id="vehicle_6"  type="typedlist1" depart="0.00" route="route_1"/>
    <vehicle id="vehicle_7"  type="typedlist1" depart="0.00" route="route_1"/>
    <vehicle id="vehicle_8"  type="typedlist1" depart="0.00" route="route_1"/>
    <vehicle id="vehicle_9"  type="typedlist1" depart="0.00" route="route_1"/>
</routes>
