<?xml version="1.0" encoding="UTF-8"?>

<!-- generated on Mon Apr 13 15:10:34 2020 by Eclipse SUMO duarouter Version 1.2.0
<configuration xmlns:xsi="http://www.w3.org/2001/XMLSchema-instance" xsi:noNamespaceSchemaLocation="http://sumo.dlr.de/xsd/duarouterConfiguration.xsd">

    <input>
        <net-file value="netNoLinks.net.xml"/>
        <route-files value="500Vehicles.trip.xml"/>
    </input>

    <output>
        <output-file value="500Vehicles.rou.xml"/>
        <alternatives-output value="500Vehicles.rou.alt.xml"/>
    </output>

    <report>
        <ignore-errors value="true"/>
    </report>

</configuration>
-->

<routes xmlns:xsi="http://www.w3.org/2001/XMLSchema-instance" xsi:noNamespaceSchemaLocation="http://sumo.dlr.de/xsd/routes_file.xsd">
    <vehicle id="0" depart="0.00">
        <route edges="C1C0 C0B0 B0B1 B1B2 B2C2 C2D2 D2E2 E2E1"/>
    </vehicle>
    <vehicle id="3" depart="6.00">
        <route edges="B4B3 B3A3 A3A4 A4B4 B4C4 C4D4 D4E4 E4E3 E3E2 E2E1 E1E0 E0D0 D0D1"/>
    </vehicle>
    <vehicle id="5" depart="10.00">
        <route edges="C0C1 C1C2 C2D2 D2D1 D1C1 C1B1 B1A1"/>
    </vehicle>
    <vehicle id="7" depart="14.00">
        <route edges="B3B4 B4C4 C4D4 D4D3 D3D2 D2D1 D1D0 D0C0 C0C1 C1D1"/>
    </vehicle>
    <vehicle id="8" depart="16.00">
        <route edges="A3B3 B3B2 B2A2 A2A3 A3A4 A4B4"/>
    </vehicle>
    <vehicle id="9" depart="18.00">
        <route edges="B2B1 B1A1 A1A2 A2A3 A3B3 B3B2 B2A2"/>
    </vehicle>
    <vehicle id="10" depart="20.00">
        <route edges="B4C4 C4C3 C3B3 B3A3"/>
    </vehicle>
    <vehicle id="11" depart="22.00">
        <route edges="C3C2 C2B2 B2B3 B3C3"/>
    </vehicle>
    <vehicle id="12" depart="24.00">
        <route edges="C1B1 B1A1 A1A2 A2A3 A3A4"/>
    </vehicle>
    <vehicle id="13" depart="26.00">
        <route edges="E2E1 E1E0 E0D0 D0C0"/>
    </vehicle>
    <vehicle id="15" depart="30.00">
        <route edges="E1D1 D1C1 C1B1 B1A1 A1A2 A2B2 B2B1"/>
    </vehicle>
    <vehicle id="16" depart="32.00">
        <route edges="D3D2 D2C2 C2B2 B2B3 B3C3 C3C2 C2C1"/>
    </vehicle>
    <vehicle id="18" depart="36.00">
        <route edges="C3C4 C4D4 D4D3 D3C3 C3B3 B3A3 A3A4 A4B4 B4B3 B3B2"/>
    </vehicle>
    <vehicle id="19" depart="38.00">
        <route edges="E2E1 E1D1 D1D2 D2D3 D3D4 D4E4 E4E3 E3D3 D3C3 C3B3"/>
    </vehicle>
    <vehicle id="20" depart="40.00">
        <route edges="C1C0 C0B0 B0B1 B1B2 B2B3 B3B4 B4C4 C4D4"/>
    </vehicle>
    <vehicle id="21" depart="42.00">
        <route edges="D2C2 C2B2 B2B3 B3B4 B4C4"/>
    </vehicle>
    <vehicle id="22" depart="44.00">
        <route edges="B1A1 A1A2 A2B2 B2C2 C2C1 C1B1"/>
    </vehicle>
    <vehicle id="23" depart="46.00">
        <route edges="D3D4 D4E4 E4E3 E3E2 E2E1 E1E0 E0D0 D0D1 D1E1"/>
    </vehicle>
    <vehicle id="25" depart="50.00">
        <route edges="B0A0 A0A1 A1B1 B1C1 C1C0 C0B0 B0B1 B1B2"/>
    </vehicle>
    <vehicle id="26" depart="52.00">
        <route edges="A1A2 A2A3 A3B3 B3B2 B2A2"/>
    </vehicle>
    <vehicle id="27" depart="54.00">
        <route edges="E4E3 E3E2 E2E1 E1D1 D1D2 D2E2"/>
    </vehicle>
    <vehicle id="30" depart="60.00">
        <route edges="C3D3 D3E3 E3E2 E2E1 E1E0 E0D0 D0D1 D1E1"/>
    </vehicle>
    <vehicle id="31" depart="62.00">
        <route edges="A2B2 B2C2 C2C1 C1B1 B1B2"/>
    </vehicle>
    <vehicle id="34" depart="68.00">
        <route edges="C3D3 D3D2 D2C2 C2B2 B2B3 B3B4 B4C4 C4C3"/>
    </vehicle>
    <vehicle id="35" depart="70.00">
        <route edges="E3E2 E2E1 E1D1 D1C1 C1B1 B1A1"/>
    </vehicle>
    <vehicle id="36" depart="72.00">
        <route edges="D1D2"/>
    </vehicle>
    <vehicle id="37" depart="74.00">
        <route edges="E3D3 D3D4 D4E4 E4E3"/>
    </vehicle>
    <vehicle id="39" depart="78.00">
        <route edges="B4B3 B3A3 A3A4 A4B4 B4C4 C4D4 D4E4 E4E3 E3E2 E2E1 E1D1"/>
    </vehicle>
    <vehicle id="41" depart="82.00">
        <route edges="D1D0 D0C0 C0B0 B0B1 B1B2 B2B3 B3B4 B4C4 C4C3 C3B3"/>
    </vehicle>
    <vehicle id="42" depart="84.00">
        <route edges="C1C0 C0B0 B0B1 B1B2 B2B3 B3B4 B4C4"/>
    </vehicle>
    <vehicle id="43" depart="86.00">
        <route edges="E2D2 D2D3 D3E3 E3E2 E2E1 E1E0 E0D0 D0D1"/>
    </vehicle>
    <vehicle id="45" depart="90.00">
        <route edges="D0C0 C0C1 C1D1 D1E1 E1E0 E0D0 D0D1 D1D2 D2D3"/>
    </vehicle>
    <vehicle id="46" depart="92.00">
        <route edges="A1B1 B1C1 C1C0"/>
    </vehicle>
    <vehicle id="47" depart="94.00">
        <route edges="E1E0 E0D0 D0C0 C0B0 B0A0 A0A1 A1A2 A2A3 A3B3 B3B2 B2A2"/>
    </vehicle>
    <vehicle id="48" depart="96.00">
        <route edges="D3C3 C3C4 C4D4 D4E4 E4E3 E3D3 D3D4"/>
    </vehicle>
    <vehicle id="49" depart="98.00">
        <route edges="B2B3 B3C3"/>
    </vehicle>
    <vehicle id="50" depart="100.00">
        <route edges="C1C2 C2C3 C3C4 C4D4 D4E4"/>
    </vehicle>
    <vehicle id="53" depart="106.00">
        <route edges="C3C4 C4D4 D4D3 D3C3 C3B3"/>
    </vehicle>
    <vehicle id="54" depart="108.00">
        <route edges="B1B0 B0A0 A0A1 A1A2 A2A3 A3A4 A4B4 B4C4 C4D4 D4E4 E4E3"/>
    </vehicle>
    <vehicle id="56" depart="112.00">
        <route edges="A3A4 A4B4 B4B3 B3B2 B2B1 B1A1 A1A2 A2B2"/>
    </vehicle>
    <vehicle id="57" depart="114.00">
        <route edges="B0B1 B1C1 C1C0 C0B0 B0A0 A0A1 A1A2 A2A3 A3A4 A4B4 B4B3"/>
    </vehicle>
    <vehicle id="58" depart="116.00">
        <route edges="E3D3 D3D4 D4E4 E4E3 E3E2 E2D2 D2C2 C2B2 B2B3"/>
    </vehicle>
    <vehicle id="59" depart="118.00">
        <route edges="C3C2 C2C1 C1C0 C0B0 B0A0"/>
    </vehicle>
    <vehicle id="60" depart="120.00">
        <route edges="C3B3 B3A3 A3A4 A4B4 B4B3 B3B2 B2B1 B1A1"/>
    </vehicle>
    <vehicle id="64" depart="128.00">
        <route edges="A1A2 A2A3 A3A4 A4B4 B4C4 C4D4 D4E4 E4E3 E3D3 D3D4"/>
    </vehicle>
    <vehicle id="66" depart="132.00">
        <route edges="C1D1 D1D0 D0C0 C0B0 B0B1 B1B2 B2C2 C2C1 C1B1"/>
    </vehicle>
    <vehicle id="68" depart="136.00">
        <route edges="B1B2 B2C2 C2C1 C1B1 B1A1 A1A2 A2A3 A3B3"/>
    </vehicle>
    <vehicle id="69" depart="138.00">
        <route edges="E2E1 E1D1 D1C1 C1B1 B1A1 A1A2 A2A3 A3A4 A4B4"/>
    </vehicle>
    <vehicle id="70" depart="140.00">
        <route edges="E1D1 D1C1 C1B1 B1A1 A1A2 A2A3 A3A4"/>
    </vehicle>
    <vehicle id="71" depart="142.00">
        <route edges="A3B3 B3C3 C3C2"/>
    </vehicle>
    <vehicle id="72" depart="144.00">
        <route edges="E2D2 D2C2"/>
    </vehicle>
    <vehicle id="74" depart="148.00">
        <route edges="C2B2 B2B3 B3B4 B4C4 C4D4 D4D3 D3C3 C3C4"/>
    </vehicle>
    <vehicle id="75" depart="150.00">
        <route edges="C2D2 D2D1 D1C1 C1C2 C2C3 C3D3 D3E3 E3E2"/>
    </vehicle>
    <vehicle id="76" depart="152.00">
        <route edges="C0B0 B0B1 B1C1 C1D1 D1E1 E1E0"/>
    </vehicle>
    <vehicle id="78" depart="156.00">
        <route edges="C1C2 C2C3 C3C4"/>
    </vehicle>
    <vehicle id="80" depart="160.00">
        <route edges="C3C2 C2B2 B2B3 B3C3 C3D3 D3E3 E3E2 E2E1 E1D1 D1D2"/>
    </vehicle>
    <vehicle id="81" depart="162.00">
        <route edges="D1C1 C1B1 B1A1 A1A2 A2A3 A3A4 A4B4"/>
    </vehicle>
    <vehicle id="83" depart="166.00">
        <route edges="B3B4 B4C4 C4C3 C3C2 C2B2 B2A2"/>
    </vehicle>
    <vehicle id="84" depart="168.00">
        <route edges="E2D2 D2C2 C2C3 C3C4"/>
    </vehicle>
    <vehicle id="85" depart="170.00">
        <route edges="B2C2 C2C1 C1B1 B1B2 B2B3 B3B4 B4C4 C4D4 D4D3 D3C3"/>
    </vehicle>
    <vehicle id="86" depart="172.00">
        <route edges="B1B0 B0A0 A0A1 A1A2 A2A3 A3A4 A4B4 B4C4 C4C3 C3B3"/>
    </vehicle>
    <vehicle id="88" depart="176.00">
        <route edges="E2D2 D2D3 D3E3 E3E2 E2E1 E1E0 E0D0 D0C0 C0B0"/>
    </vehicle>
    <vehicle id="89" depart="178.00">
        <route edges="A0A1 A1B1 B1B0"/>
    </vehicle>
    <vehicle id="90" depart="180.00">
        <route edges="E4D4 D4C4 C4B4"/>
    </vehicle>
    <vehicle id="93" depart="186.00">
        <route edges="B4C4"/>
    </vehicle>
    <vehicle id="94" depart="188.00">
        <route edges="C3C2 C2C1 C1B1 B1B2 B2C2 C2D2 D2E2"/>
    </vehicle>
    <vehicle id="95" depart="190.00">
        <route edges="A2B2 B2C2 C2D2 D2E2 E2E1 E1E0 E0D0 D0D1 D1E1"/>
    </vehicle>
    <vehicle id="96" depart="192.00">
        <route edges="B0A0 A0A1 A1B1 B1C1 C1D1 D1E1 E1E0 E0D0 D0D1"/>
    </vehicle>
    <vehicle id="97" depart="194.00">
        <route edges="D1D0 D0C0 C0C1 C1C2 C2C3 C3C4 C4D4 D4D3"/>
    </vehicle>
    <vehicle id="98" depart="196.00">
        <route edges="E2E1 E1E0 E0D0 D0C0 C0B0 B0B1 B1C1 C1C0"/>
    </vehicle>
    <vehicle id="100" depart="200.00">
        <route edges="D0C0 C0C1 C1C2 C2D2 D2E2 E2E1 E1D1"/>
    </vehicle>
    <vehicle id="102" depart="204.00">
        <route edges="C1B1 B1B2 B2B3 B3B4 B4C4 C4D4 D4D3 D3C3 C3C4"/>
    </vehicle>
    <vehicle id="104" depart="208.00">
        <route edges="C2B2 B2B3 B3C3 C3D3 D3D2 D2D1"/>
    </vehicle>
    <vehicle id="106" depart="212.00">
        <route edges="C0B0 B0A0 A0A1 A1A2 A2B2 B2B1"/>
    </vehicle>
    <vehicle id="107" depart="214.00">
        <route edges="B0C0 C0D0 D0E0 E0E1 E1E2 E2E3 E3E4 E4D4 D4C4 C4B4"/>
    </vehicle>
    <vehicle id="108" depart="216.00">
        <route edges="D2E2 E2E1 E1D1 D1C1 C1B1 B1B2 B2B3"/>
    </vehicle>
    <vehicle id="109" depart="218.00">
        <route edges="D3D2 D2C2 C2B2 B2B3 B3C3 C3C2 C2C1"/>
    </vehicle>
    <vehicle id="111" depart="222.00">
        <route edges="B2A2 A2A3 A3A4 A4B4 B4B3 B3A3"/>
    </vehicle>
    <vehicle id="112" depart="224.00">
        <route edges="A3B3 B3B2 B2A2 A2A3 A3A4 A4B4"/>
    </vehicle>
    <vehicle id="113" depart="226.00">
        <route edges="D3D4 D4E4 E4E3 E3D3 D3C3 C3B3"/>
    </vehicle>
    <vehicle id="114" depart="228.00">
        <route edges="A4B4 B4B3 B3B2 B2B1 B1B0 B0A0"/>
    </vehicle>
    <vehicle id="116" depart="232.00">
        <route edges="A4B4 B4C4 C4D4 D4E4 E4E3 E3E2"/>
    </vehicle>
    <vehicle id="117" depart="234.00">
        <route edges="E0D0 D0C0 C0C1 C1C2 C2C3 C3C4 C4D4 D4D3"/>
    </vehicle>
    <vehicle id="118" depart="236.00">
        <route edges="B3B4 B4C4 C4D4 D4D3 D3D2 D2D1 D1D0 D0C0 C0C1 C1D1"/>
    </vehicle>
    <vehicle id="120" depart="240.00">
        <route edges="C4D4 D4E4 E4E3"/>
    </vehicle>
    <vehicle id="122" depart="244.00">
        <route edges="E3E2 E2E1 E1E0 E0D0 D0C0 C0B0 B0A0 A0A1"/>
    </vehicle>
    <vehicle id="123" depart="246.00">
        <route edges="E2D2 D2D3 D3D4 D4E4 E4E3 E3D3 D3C3 C3B3"/>
    </vehicle>
    <vehicle id="124" depart="248.00">
        <route edges="E1D1 D1C1 C1C2 C2C3 C3D3 D3D2"/>
    </vehicle>
    <vehicle id="125" depart="250.00">
        <route edges="E4E3 E3E2 E2D2 D2C2 C2B2 B2A2 A2A3"/>
    </vehicle>
    <vehicle id="126" depart="252.00">
        <route edges="B2B3 B3B4 B4C4 C4D4 D4E4 E4E3 E3D3"/>
    </vehicle>
    <vehicle id="127" depart="254.00">
        <route edges="D1D0 D0C0 C0B0 B0A0 A0A1 A1B1 B1B0"/>
    </vehicle>
    <vehicle id="128" depart="256.00">
        <route edges="E1E2 E2E3 E3E4 E4D4 D4C4 C4B4 B4A4"/>
    </vehicle>
    <vehicle id="129" depart="258.00">
        <route edges="C2B2 B2B3 B3C3 C3C2 C2C1 C1C0 C0B0 B0B1 B1C1"/>
    </vehicle>
    <vehicle id="132" depart="264.00">
        <route edges="A3B3 B3C3 C3D3 D3D2"/>
    </vehicle>
    <vehicle id="133" depart="266.00">
        <route edges="C3C4 C4D4 D4D3 D3D2"/>
    </vehicle>
    <vehicle id="134" depart="268.00">
        <route edges="C3B3 B3B4 B4C4 C4D4 D4D3 D3D2 D2D1"/>
    </vehicle>
    <vehicle id="135" depart="270.00">
        <route edges="A3A4 A4B4 B4C4 C4C3 C3C2 C2C1 C1C0 C0B0 B0B1 B1C1"/>
    </vehicle>
    <vehicle id="136" depart="272.00">
        <route edges="C4B4 B4A4 A4A3 A3A2 A2A1 A1A0"/>
    </vehicle>
    <vehicle id="138" depart="276.00">
        <route edges="C2C1 C1B1 B1B2 B2B3 B3C3 C3D3 D3E3 E3E2 E2D2 D2D3"/>
    </vehicle>
    <vehicle id="140" depart="280.00">
        <route edges="D0D1 D1D2 D2D3 D3E3 E3E2 E2D2 D2C2"/>
    </vehicle>
    <vehicle id="141" depart="282.00">
        <route edges="E2E1 E1D1 D1D2 D2D3 D3D4 D4E4 E4E3 E3D3"/>
    </vehicle>
    <vehicle id="142" depart="284.00">
        <route edges="E2D2 D2D3 D3E3 E3E2 E2E1 E1D1 D1D2 D2E2"/>
    </vehicle>
    <vehicle id="144" depart="288.00">
        <route edges="C1D1 D1D0 D0C0 C0B0 B0A0 A0A1"/>
    </vehicle>
    <vehicle id="145" depart="290.00">
        <route edges="B2B1 B1A1 A1A2"/>
    </vehicle>
    <vehicle id="146" depart="292.00">
        <route edges="A2A3 A3B3 B3C3 C3D3 D3E3 E3E2 E2D2 D2D3"/>
    </vehicle>
    <vehicle id="150" depart="300.00">
        <route edges="D3D2 D2D1 D1C1 C1B1 B1A1 A1A2 A2B2 B2B1"/>
    </vehicle>
    <vehicle id="152" depart="304.00">
        <route edges="C3B3 B3A3 A3A4 A4B4"/>
    </vehicle>
    <vehicle id="154" depart="308.00">
        <route edges="B2C2 C2D2 D2E2 E2E1 E1E0 E0D0 D0D1"/>
    </vehicle>
    <vehicle id="159" depart="318.00">
        <route edges="D3D4 D4E4 E4E3 E3E2 E2D2 D2D3"/>
    </vehicle>
    <vehicle id="160" depart="320.00">
        <route edges="E3D3 D3D4 D4E4 E4E3 E3E2 E2E1 E1D1 D1C1"/>
    </vehicle>
    <vehicle id="161" depart="322.00">
        <route edges="D1D2 D2E2 E2E1 E1E0 E0D0 D0C0 C0B0 B0A0 A0A1 A1B1"/>
    </vehicle>
    <vehicle id="162" depart="324.00">
        <route edges="D1D2 D2E2 E2E1 E1D1 D1C1 C1B1 B1B2"/>
    </vehicle>
    <vehicle id="163" depart="326.00">
        <route edges="E4E3 E3D3 D3C3 C3B3 B3A3"/>
    </vehicle>
    <vehicle id="164" depart="328.00">
        <route edges="C1C2 C2D2 D2D1 D1C1 C1B1 B1B2"/>
    </vehicle>
    <vehicle id="165" depart="330.00">
        <route edges="B3C3 C3C2 C2B2 B2A2 A2A3 A3A4 A4B4"/>
    </vehicle>
    <vehicle id="166" depart="332.00">
        <route edges="D1D0 D0C0 C0B0 B0B1"/>
    </vehicle>
    <vehicle id="168" depart="336.00">
        <route edges="B1C1 C1D1 D1D0 D0C0"/>
    </vehicle>
    <vehicle id="169" depart="338.00">
        <route edges="D1E1 E1E0 E0D0 D0C0 C0B0 B0A0 A0A1 A1B1"/>
    </vehicle>
    <vehicle id="172" depart="344.00">
        <route edges="C3C2 C2C1 C1C0"/>
    </vehicle>
    <vehicle id="173" depart="346.00">
        <route edges="C3D3 D3E3 E3E2 E2E1"/>
    </vehicle>
    <vehicle id="175" depart="350.00">
        <route edges="D1D0 D0C0 C0B0 B0A0 A0A1 A1A2 A2A3"/>
    </vehicle>
    <vehicle id="177" depart="354.00">
        <route edges="D3C3 C3C4 C4D4 D4E4 E4E3 E3E2 E2E1 E1D1 D1D2 D2E2"/>
    </vehicle>
    <vehicle id="179" depart="358.00">
        <route edges="D1D2 D2D3 D3D4"/>
    </vehicle>
    <vehicle id="181" depart="362.00">
        <route edges="D2D1 D1C1 C1B1 B1B2 B2B3 B3B4 B4C4"/>
    </vehicle>
    <vehicle id="183" depart="366.00">
        <route edges="D3E3 E3E2 E2D2 D2C2 C2B2 B2A2 A2A3 A3B3 B3B2"/>
    </vehicle>
    <vehicle id="184" depart="368.00">
        <route edges="E2E1 E1D1 D1C1 C1B1 B1A1 A1A2 A2A3 A3B3 B3B2"/>
    </vehicle>
    <vehicle id="185" depart="370.00">
        <route edges="D2D3 D3D4 D4E4 E4E3 E3D3 D3C3 C3C4 C4D4"/>
    </vehicle>
    <vehicle id="186" depart="372.00">
        <route edges="D4C4 C4B4 B4A4 A4A3 A3A2 A2A1 A1A0 A0B0 B0C0 C0D0 D0E0 E0E1"/>
    </vehicle>
    <vehicle id="187" depart="374.00">
        <route edges="B3A3 A3A4 A4B4 B4C4 C4C3 C3C2 C2B2"/>
    </vehicle>
    <vehicle id="189" depart="378.00">
        <route edges="B1B0 B0A0 A0A1 A1A2 A2B2 B2C2 C2D2"/>
    </vehicle>
    <vehicle id="192" depart="384.00">
        <route edges="B1A1 A1A2 A2A3 A3B3 B3C3 C3D3 D3E3 E3E2 E2D2"/>
    </vehicle>
    <vehicle id="193" depart="386.00">
        <route edges="D3E3 E3E2 E2D2 D2C2 C2B2 B2A2 A2A3 A3B3"/>
    </vehicle>
    <vehicle id="194" depart="388.00">
        <route edges="D2C2 C2C3 C3D3 D3D2 D2D1 D1D0"/>
    </vehicle>
    <vehicle id="196" depart="392.00">
        <route edges="E2D2 D2D3 D3E3 E3E2 E2E1 E1D1 D1D2 D2E2"/>
    </vehicle>
    <vehicle id="199" depart="398.00">
        <route edges="D3D4 D4E4 E4E3 E3E2 E2D2 D2C2 C2B2 B2A2 A2A3 A3B3"/>
    </vehicle>
    <vehicle id="200" depart="400.00">
        <route edges="C2C3 C3D3 D3D2 D2D1 D1D0 D0C0 C0B0 B0B1 B1C1"/>
    </vehicle>
    <vehicle id="202" depart="404.00">
        <route edges="A4B4 B4B3 B3B2 B2A2 A2A3"/>
    </vehicle>
    <vehicle id="204" depart="408.00">
        <route edges="A1A2 A2B2 B2C2 C2D2 D2E2 E2E1 E1E0 E0D0"/>
    </vehicle>
    <vehicle id="205" depart="410.00">
        <route edges="D1C1 C1C2 C2C3 C3D3 D3D2"/>
    </vehicle>
    <vehicle id="206" depart="412.00">
        <route edges="C3C4 C4D4 D4E4 E4E3 E3E2"/>
    </vehicle>
    <vehicle id="207" depart="414.00">
        <route edges="E4E3 E3E2 E2E1 E1E0 E0D0 D0C0"/>
    </vehicle>
    <vehicle id="209" depart="418.00">
        <route edges="A0A1 A1A2 A2B2 B2C2 C2D2 D2D1 D1C1"/>
    </vehicle>
    <vehicle id="210" depart="420.00">
        <route edges="D3D4 D4E4 E4E3 E3E2 E2D2 D2C2 C2B2 B2B3 B3C3 C3C2"/>
    </vehicle>
    <vehicle id="211" depart="422.00">
        <route edges="B2B3 B3B4 B4C4 C4D4 D4E4 E4E3 E3D3"/>
    </vehicle>
    <vehicle id="213" depart="426.00">
        <route edges="C2C1 C1B1 B1B2"/>
    </vehicle>
    <vehicle id="214" depart="428.00">
        <route edges="D1E1 E1E0 E0D0 D0C0 C0B0 B0B1 B1B2 B2B3 B3C3 C3C2 C2B2"/>
    </vehicle>
    <vehicle id="215" depart="430.00">
        <route edges="C1B1 B1A1 A1A2 A2A3 A3A4"/>
    </vehicle>
    <vehicle id="218" depart="436.00">
        <route edges="D0C0 C0C1 C1C2 C2D2 D2E2 E2E1"/>
    </vehicle>
    <vehicle id="219" depart="438.00">
        <route edges="C2C3 C3D3 D3E3 E3E2 E2E1 E1E0 E0D0 D0D1"/>
    </vehicle>
    <vehicle id="220" depart="440.00">
        <route edges="D0D1 D1D2 D2E2"/>
    </vehicle>
    <vehicle id="222" depart="444.00">
        <route edges="E0D0 D0C0 C0B0 B0A0 A0A1 A1B1 B1B0"/>
    </vehicle>
    <vehicle id="223" depart="446.00">
        <route edges="C1B1 B1A1 A1A2 A2A3"/>
    </vehicle>
    <vehicle id="224" depart="448.00">
        <route edges="C3D3 D3D2 D2D1 D1D0 D0C0 C0B0 B0A0"/>
    </vehicle>
    <vehicle id="226" depart="452.00">
        <route edges="D0D1 D1E1 E1E0 E0D0 D0C0 C0C1"/>
    </vehicle>
    <vehicle id="227" depart="454.00">
        <route edges="D2E2 E2E1 E1D1 D1C1 C1B1 B1B2 B2B3 B3C3"/>
    </vehicle>
    <vehicle id="228" depart="456.00">
        <route edges="C3C2 C2B2 B2B3 B3C3 C3D3 D3E3 E3E2 E2D2 D2D3"/>
    </vehicle>
    <vehicle id="229" depart="458.00">
        <route edges="C3D3 D3D2 D2C2 C2B2 B2B3 B3C3 C3C2 C2C1"/>
    </vehicle>
    <vehicle id="230" depart="460.00">
        <route edges="C4C3 C3C2 C2B2"/>
    </vehicle>
    <vehicle id="231" depart="462.00">
        <route edges="C4B4 B4A4 A4A3 A3A2 A2A1 A1A0"/>
    </vehicle>
    <vehicle id="233" depart="466.00">
        <route edges="B2C2 C2C1 C1C0 C0B0 B0B1"/>
    </vehicle>
    <vehicle id="234" depart="468.00">
        <route edges="D1C1 C1B1 B1A1 A1A2 A2A3 A3A4"/>
    </vehicle>
    <vehicle id="235" depart="470.00">
        <route edges="A1A2 A2B2 B2C2 C2C1 C1B1 B1B2"/>
    </vehicle>
    <vehicle id="236" depart="472.00">
        <route edges="B3C3 C3D3 D3D2 D2C2 C2C3"/>
    </vehicle>
    <vehicle id="237" depart="474.00">
        <route edges="B1A1 A1A2 A2B2 B2C2 C2C1 C1C0 C0B0 B0B1"/>
    </vehicle>
    <vehicle id="238" depart="476.00">
        <route edges="A2A1 A1A0 A0B0 B0C0 C0D0 D0E0 E0E1 E1E2 E2E3 E3E4 E4D4 D4C4 C4B4 B4A4 A4A3"/>
    </vehicle>
    <vehicle id="239" depart="478.00">
        <route edges="C3C4 C4D4 D4E4 E4E3 E3E2 E2D2 D2D3"/>
    </vehicle>
    <vehicle id="240" depart="480.00">
        <route edges="C1C2 C2D2 D2D1 D1D0 D0C0"/>
    </vehicle>
    <vehicle id="241" depart="482.00">
        <route edges="D1E1 E1E0 E0D0 D0C0 C0B0 B0B1 B1B2 B2B3 B3B4 B4C4 C4C3 C3B3"/>
    </vehicle>
    <vehicle id="243" depart="486.00">
        <route edges="D3C3 C3C4 C4D4 D4E4 E4E3 E3E2 E2E1 E1D1 D1D2"/>
    </vehicle>
    <vehicle id="244" depart="488.00">
        <route edges="E1E0 E0D0 D0D1 D1E1"/>
    </vehicle>
    <vehicle id="247" depart="494.00">
        <route edges="A1B1 B1C1 C1D1 D1E1 E1E0 E0D0"/>
    </vehicle>
    <vehicle id="250" depart="500.00">
        <route edges="B2C2 C2C1 C1B1 B1A1 A1A2"/>
    </vehicle>
    <vehicle id="252" depart="504.00">
        <route edges="C4D4 D4D3 D3D2 D2D1 D1D0 D0C0 C0C1 C1D1"/>
    </vehicle>
    <vehicle id="253" depart="506.00">
        <route edges="D1D2 D2E2 E2E1 E1E0 E0D0 D0C0 C0B0 B0A0 A0A1 A1B1"/>
    </vehicle>
    <vehicle id="254" depart="508.00">
        <route edges="D1D2 D2D3 D3D4 D4E4 E4E3 E3D3 D3C3 C3B3"/>
    </vehicle>
    <vehicle id="255" depart="510.00">
        <route edges="D1D2 D2E2 E2E1 E1D1 D1C1 C1C2 C2D2 D2D1"/>
    </vehicle>
    <vehicle id="256" depart="512.00">
        <route edges="B3B4 B4C4 C4C3 C3C2 C2C1 C1C0 C0B0 B0B1 B1C1"/>
    </vehicle>
    <vehicle id="257" depart="514.00">
        <route edges="C3D3 D3D2 D2C2 C2C3 C3C4 C4D4 D4D3 D3C3"/>
    </vehicle>
    <vehicle id="260" depart="520.00">
        <route edges="E3E2 E2E1 E1E0 E0D0 D0C0 C0B0 B0B1 B1C1 C1C0"/>
    </vehicle>
    <vehicle id="261" depart="522.00">
        <route edges="D2C2 C2C3"/>
    </vehicle>
    <vehicle id="262" depart="524.00">
        <route edges="C3D3 D3D2 D2D1 D1C1 C1C2 C2D2 D2E2"/>
    </vehicle>
    <vehicle id="263" depart="526.00">
        <route edges="B3B4 B4C4 C4C3 C3C2 C2C1 C1C0 C0B0 B0B1"/>
    </vehicle>
    <vehicle id="264" depart="528.00">
        <route edges="C2D2 D2D1 D1C1 C1B1 B1A1 A1A2 A2A3 A3B3"/>
    </vehicle>
    <vehicle id="267" depart="534.00">
        <route edges="C0C1 C1D1 D1D0 D0C0 C0B0 B0A0 A0A1 A1A2 A2A3 A3A4 A4B4 B4B3"/>
    </vehicle>
    <vehicle id="268" depart="536.00">
        <route edges="A3A4 A4B4 B4B3 B3B2 B2B1 B1B0"/>
    </vehicle>
    <vehicle id="269" depart="538.00">
        <route edges="E4E3 E3E2 E2E1 E1D1 D1C1 C1C2"/>
    </vehicle>
    <vehicle id="270" depart="540.00">
        <route edges="C0B0 B0B1"/>
    </vehicle>
    <vehicle id="271" depart="542.00">
        <route edges="D1E1 E1E0 E0D0 D0C0 C0B0 B0B1 B1B2"/>
    </vehicle>
    <vehicle id="272" depart="544.00">
        <route edges="A2A3 A3A4 A4B4 B4C4 C4D4 D4E4"/>
    </vehicle>
    <vehicle id="273" depart="546.00">
        <route edges="D0C0 C0B0 B0A0 A0A1 A1A2 A2A3 A3A4"/>
    </vehicle>
    <vehicle id="274" depart="548.00">
        <route edges="B1B2 B2C2 C2D2 D2D1 D1C1"/>
    </vehicle>
    <vehicle id="275" depart="550.00">
        <route edges="B4B3"/>
    </vehicle>
    <vehicle id="276" depart="552.00">
        <route edges="E3D3 D3C3 C3B3 B3A3 A3A4 A4B4 B4B3 B3B2 B2A2 A2A3"/>
    </vehicle>
    <vehicle id="277" depart="554.00">
        <route edges="B2B3 B3B4 B4C4 C4C3 C3B3"/>
    </vehicle>
    <vehicle id="280" depart="560.00">
        <route edges="E1E0 E0D0 D0C0 C0C1 C1C2"/>
    </vehicle>
    <vehicle id="283" depart="566.00">
        <route edges="A4A3 A3A2 A2A1 A1A0 A0B0 B0C0 C0D0 D0E0 E0E1 E1E2 E2E3"/>
    </vehicle>
    <vehicle id="284" depart="568.00">
        <route edges="C1D1 D1D0 D0C0 C0B0 B0B1 B1B2"/>
    </vehicle>
    <vehicle id="285" depart="570.00">
        <route edges="D2E2 E2E1 E1D1 D1C1 C1B1 B1B2 B2B3 B3C3"/>
    </vehicle>
    <vehicle id="287" depart="574.00">
        <route edges="E2D2 D2D3 D3E3 E3E2 E2E1 E1D1 D1D2 D2E2"/>
    </vehicle>
    <vehicle id="290" depart="580.00">
        <route edges="A3B3 B3B2 B2B1 B1A1"/>
    </vehicle>
    <vehicle id="291" depart="582.00">
        <route edges="D3D2 D2C2 C2C3 C3C4 C4D4 D4E4 E4E3"/>
    </vehicle>
    <vehicle id="292" depart="584.00">
        <route edges="D2D1 D1C1 C1C2 C2C3 C3C4 C4D4 D4E4 E4E3 E3D3 D3D4"/>
    </vehicle>
    <vehicle id="293" depart="586.00">
        <route edges="D2D1 D1C1 C1C2 C2C3"/>
    </vehicle>
    <vehicle id="295" depart="590.00">
        <route edges="B3B4 B4C4 C4C3 C3C2 C2C1 C1B1"/>
    </vehicle>
    <vehicle id="296" depart="592.00">
        <route edges="E2D2 D2D3 D3E3 E3E2 E2E1 E1E0 E0D0 D0C0 C0B0 B0B1 B1C1"/>
    </vehicle>
    <vehicle id="298" depart="596.00">
        <route edges="E3E4 E4D4 D4C4 C4B4 B4A4 A4A3"/>
    </vehicle>
    <vehicle id="299" depart="598.00">
        <route edges="C2C3 C3D3"/>
    </vehicle>
    <vehicle id="300" depart="600.00">
        <route edges="E2E1 E1D1 D1C1 C1B1"/>
    </vehicle>
    <vehicle id="301" depart="602.00">
        <route edges="E0D0 D0C0 C0B0 B0A0 A0A1 A1A2 A2A3 A3A4"/>
    </vehicle>
    <vehicle id="302" depart="604.00">
        <route edges="D2D1 D1C1 C1B1 B1A1 A1A2 A2A3 A3A4 A4B4"/>
    </vehicle>
    <vehicle id="303" depart="606.00">
        <route edges="A2A3 A3A4 A4B4 B4C4 C4D4 D4D3 D3C3 C3C4"/>
    </vehicle>
    <vehicle id="305" depart="610.00">
        <route edges="D2E2 E2E1 E1D1 D1C1 C1C2 C2C3 C3D3"/>
    </vehicle>
    <vehicle id="308" depart="616.00">
        <route edges="C2D2 D2D1 D1D0 D0C0 C0B0 B0A0"/>
    </vehicle>
    <vehicle id="309" depart="618.00">
        <route edges="A2A3 A3A4 A4B4 B4C4 C4D4 D4E4"/>
    </vehicle>
    <vehicle id="310" depart="620.00">
        <route edges="C2B2 B2B3 B3C3 C3C2 C2C1 C1B1 B1B2 B2C2 C2D2 D2E2"/>
    </vehicle>
    <vehicle id="311" depart="622.00">
        <route edges="B4B3 B3B2"/>
    </vehicle>
    <vehicle id="312" depart="624.00">
        <route edges="B3B2 B2B1 B1A1 A1A2 A2B2 B2C2 C2D2"/>
    </vehicle>
    <vehicle id="313" depart="626.00">
        <route edges="D2C2 C2C3 C3D3 D3D2 D2D1 D1C1 C1C2 C2D2 D2E2"/>
    </vehicle>
    <vehicle id="314" depart="628.00">
        <route edges="A3B3 B3C3 C3D3 D3D2 D2D1 D1D0"/>
    </vehicle>
    <vehicle id="316" depart="632.00">
        <route edges="B4B3 B3B2 B2B1 B1B0 B0A0 A0A1 A1B1 B1C1 C1D1"/>
    </vehicle>
    <vehicle id="320" depart="640.00">
        <route edges="D1C1 C1B1 B1B2 B2B3 B3C3 C3C2"/>
    </vehicle>
    <vehicle id="322" depart="644.00">
        <route edges="E1E2 E2E3 E3E4 E4D4 D4C4 C4B4 B4A4 A4A3 A3A2 A2A1 A1A0 A0B0 B0C0 C0D0 D0E0 E0E1"/>
    </vehicle>
    <vehicle id="323" depart="646.00">
        <route edges="D2D1 D1C1 C1B1 B1A1 A1A2 A2A3 A3B3"/>
    </vehicle>
    <vehicle id="324" depart="648.00">
        <route edges="A3B3 B3C3 C3D3 D3E3 E3E2 E2E1"/>
    </vehicle>
    <vehicle id="325" depart="650.00">
        <route edges="D2D3 D3E3"/>
    </vehicle>
    <vehicle id="326" depart="652.00">
        <route edges="E1E0 E0D0 D0C0 C0C1 C1C2 C2C3 C3C4"/>
    </vehicle>
    <vehicle id="327" depart="654.00">
        <route edges="A3B3 B3C3 C3D3 D3D2 D2D1"/>
    </vehicle>
    <vehicle id="328" depart="656.00">
        <route edges="A2B2 B2B1 B1A1 A1A2 A2A3 A3B3 B3B2 B2A2"/>
    </vehicle>
    <vehicle id="330" depart="660.00">
        <route edges="B0C0 C0D0 D0E0 E0E1 E1E2 E2E3 E3E4 E4D4 D4C4 C4B4 B4A4 A4A3 A3A2 A2A1 A1A0"/>
    </vehicle>
    <vehicle id="331" depart="662.00">
        <route edges="C0C1 C1D1 D1D0 D0C0 C0B0"/>
    </vehicle>
    <vehicle id="332" depart="664.00">
        <route edges="C3D3 D3D2 D2C2 C2C3 C3C4 C4D4 D4D3 D3C3"/>
    </vehicle>
    <vehicle id="333" depart="666.00">
        <route edges="D3D2 D2C2 C2B2 B2B3"/>
    </vehicle>
    <vehicle id="335" depart="670.00">
        <route edges="A1A2 A2A3 A3A4 A4B4 B4C4 C4C3 C3B3"/>
    </vehicle>
    <vehicle id="336" depart="672.00">
        <route edges="C1C0 C0B0 B0B1 B1B2 B2B3 B3B4 B4C4 C4D4 D4E4 E4E3 E3D3"/>
    </vehicle>
    <vehicle id="337" depart="674.00">
        <route edges="E1D1 D1C1 C1B1 B1A1 A1A2 A2A3 A3A4 A4B4 B4B3"/>
    </vehicle>
    <vehicle id="338" depart="676.00">
        <route edges="C1C2 C2D2 D2E2 E2E1 E1D1"/>
    </vehicle>
    <vehicle id="339" depart="678.00">
        <route edges="C0C1 C1C2 C2D2 D2D1"/>
    </vehicle>
    <vehicle id="340" depart="680.00">
        <route edges="C0D0 D0E0 E0E1 E1E2 E2E3 E3E4 E4D4 D4C4"/>
    </vehicle>
    <vehicle id="341" depart="682.00">
        <route edges="C2B2 B2B3 B3C3 C3D3 D3D2"/>
    </vehicle>
    <vehicle id="342" depart="684.00">
        <route edges="A1A2 A2B2 B2C2 C2D2 D2D1 D1C1 C1C2"/>
    </vehicle>
    <vehicle id="345" depart="690.00">
        <route edges="D1D2 D2D3 D3D4 D4E4 E4E3 E3D3 D3C3 C3B3 B3A3 A3A4 A4B4 B4B3"/>
    </vehicle>
    <vehicle id="347" depart="694.00">
        <route edges="D4C4 C4B4 B4A4 A4A3 A3A2 A2A1 A1A0 A0B0"/>
    </vehicle>
    <vehicle id="348" depart="696.00">
        <route edges="B2B3 B3C3 C3C2 C2C1 C1B1 B1A1"/>
    </vehicle>
    <vehicle id="349" depart="698.00">
        <route edges="A2A1"/>
    </vehicle>
    <vehicle id="350" depart="700.00">
        <route edges="B0A0 A0A1 A1A2 A2B2 B2C2 C2C1"/>
    </vehicle>
    <vehicle id="351" depart="702.00">
        <route edges="C2B2 B2B3"/>
    </vehicle>
    <vehicle id="352" depart="704.00">
        <route edges="C1B1 B1B2 B2B3 B3C3 C3D3 D3E3 E3E2 E2D2 D2D3"/>
    </vehicle>
    <vehicle id="354" depart="708.00">
        <route edges="C1C0 C0B0 B0B1 B1B2 B2C2 C2D2 D2D1 D1C1"/>
    </vehicle>
    <vehicle id="355" depart="710.00">
        <route edges="B3C3 C3C2 C2B2 B2B3 B3B4 B4C4 C4D4 D4D3"/>
    </vehicle>
    <vehicle id="358" depart="716.00">
        <route edges="C2C3 C3D3 D3D2 D2D1 D1D0 D0C0 C0B0 B0A0 A0A1 A1B1 B1B0"/>
    </vehicle>
    <vehicle id="359" depart="718.00">
        <route edges="C3C4 C4D4 D4D3 D3D2"/>
    </vehicle>
    <vehicle id="362" depart="724.00">
        <route edges="D1C1 C1B1 B1A1 A1A2 A2A3 A3B3 B3B2"/>
    </vehicle>
    <vehicle id="363" depart="726.00">
        <route edges="E3E2 E2D2 D2C2 C2B2 B2B3"/>
    </vehicle>
    <vehicle id="364" depart="728.00">
        <route edges="A3B3 B3B2 B2A2 A2A3 A3A4 A4B4"/>
    </vehicle>
    <vehicle id="369" depart="738.00">
        <route edges="C4C3 C3B3 B3B4 B4C4 C4D4 D4D3 D3D2 D2C2 C2C3"/>
    </vehicle>
    <vehicle id="370" depart="740.00">
        <route edges="C3B3 B3A3 A3A4 A4B4 B4B3 B3B2 B2B1 B1A1 A1A2"/>
    </vehicle>
    <vehicle id="371" depart="742.00">
        <route edges="C1C2 C2D2 D2D1 D1C1 C1B1 B1A1 A1A2"/>
    </vehicle>
    <vehicle id="372" depart="744.00">
        <route edges="B2B1 B1B0 B0A0 A0A1 A1B1 B1C1 C1C0"/>
    </vehicle>