<?xml version="1.0" encoding="UTF-8"?>

<!-- generated on Thu Jan 30 19:54:17 2020 by Eclipse SUMO duarouter Version 1.2.0
<configuration xmlns:xsi="http://www.w3.org/2001/XMLSchema-instance" xsi:noNamespaceSchemaLocation="http://sumo.dlr.de/xsd/duarouterConfiguration.xsd">

    <input>
        <net-file value="net.net.xml"/>
        <route-files value="trips.trips.xml"/>
    </input>

    <output>
        <output-file value="200car"/>
    </output>

</configuration>
-->



<routes xmlns:xsi="http://www.w3.org/2001/XMLSchema-instance" xsi:noNamespaceSchemaLocation="http://sumo.dlr.de/xsd/routes_file.xsd">
   
    <vTypeDistribution id="typedist1">
        <vType id="type1" length="5" width="3.8" maxSpeed="5" vClass="truck" probability="0.7"/>
        <vType id="type2" length="5" width="1.8" maxSpeed="40" vClass="evehicle" probability="0.3"/>
    </vTypeDistribution>
   
    <vehicle id="0" type="typedist1" depart="0.00">
        <route edges="B1B0 B0C0 C0D0 D0E0 E0E1"/>
    </vehicle>
    <vehicle id="1" type="typedist1" depart="2.00">
        <route edges="E4E3 E3E2 E2E1 E1E0 E0D0 D0C0 C0B0 B0C0"/>
    </vehicle>
    <vehicle id="2" type="typedist1" depart="4.00">
        <route edges="B0A0 A0A1 A1A2 A2B2 B2A2"/>
    </vehicle>
    <vehicle id="3" type="typedist1" depart="6.00">
        <route edges="E3E4 E4D4 D4C4 C4B4 B4B3 B3B2 B2B1 B1B0 B0A0"/>
    </vehicle>
    <vehicle id="4" type="typedist1" depart="8.00">
        <route edges="A1A2 A2A3 A3A4 A4B4 B4C4"/>
    </vehicle>
    <vehicle id="5" type="typedist1" depart="10.00">
        <route edges="B1C1 C1B1 B1A1 A1A2 A2A1"/>
    </vehicle>
    <vehicle id="6" type="typedist1" depart="12.00">
        <route edges="A4A3 A3A2 A2A1 A1B1 B1B0"/>
    </vehicle>
    <vehicle id="7" type="typedist1" depart="14.00">
        <route edges="C4D4 D4D3 D3D2 D2D1 D1C1"/>
    </vehicle>
    <vehicle id="8" type="typedist1" depart="16.00">
        <route edges="D2D1 D1D0 D0D1"/>
    </vehicle>
    <vehicle id="9" type="typedist1" depart="18.00">
        <route edges="B3B2 B2B3 B3C3 C3C2"/>
    </vehicle>
    <vehicle id="10" type="typedist1" depart="20.00">
        <route edges="B1B2 B2B3 B3B4 B4A4"/>
    </vehicle>
    <vehicle id="11" type="typedist1" depart="22.00">
        <route edges="B0A0 A0A1 A1A2 A2B2 B2B1"/>
    </vehicle>
    <vehicle id="12" type="typedist1" depart="24.00">
        <route edges="E2E1 E1D1 D1C1 C1B1 B1B2 B2B1"/>
    </vehicle>
    <vehicle id="13" type="typedist1" depart="26.00">
        <route edges="C2D2 D2D3 D3C3"/>
    </vehicle>
    <vehicle id="14" type="typedist1" depart="28.00">
        <route edges="B1B0 B0B1 B1C1 C1D1 D1E1 E1E0"/>
    </vehicle>
    <vehicle id="15" type="typedist1" depart="30.00">
        <route edges="A3A2 A2A3 A3B3 B3C3 C3D3 D3E3 E3E2"/>
    </vehicle>
    <vehicle id="16" type="typedist1" depart="32.00">
        <route edges="C1C0 C0C1 C1C2 C2C3 C3D3 D3C3"/>
    </vehicle>
    <vehicle id="17" type="typedist1" depart="34.00">
        <route edges="B1B2 B2C2 C2C1 C1C0"/>
    </vehicle>
    <vehicle id="18" type="typedist1" depart="36.00">
        <route edges="E3D3 D3C3 C3C2 C2B2 B2A2 A2B2"/>
    </vehicle>
    <vehicle id="19" type="typedist1" depart="38.00">
        <route edges="A1B1 B1C1 C1C2 C2C3 C3C4 C4B4"/>
    </vehicle>
    <vehicle id="20" type="typedist1" depart="40.00">
        <route edges="C2D2 D2D3 D3E3 E3D3"/>
    </vehicle>
    <vehicle id="21" type="typedist1" depart="42.00">
        <route edges="A3B3 B3C3 C3D3 D3D2 D2D1 D1D0 D0C0"/>
    </vehicle>
    <vehicle id="22" type="typedist1" depart="44.00">
        <route edges="E2E1 E1D1 D1C1 C1B1 B1A1 A1A2 A2A1"/>
    </vehicle>
    <vehicle id="23" type="typedist1" depart="46.00">
        <route edges="B0A0 A0A1 A1B1 B1C1 C1D1 D1C1"/>
    </vehicle>
    <vehicle id="24" type="typedist1" depart="48.00">
        <route edges="B1C1 C1D1 D1D2 D2E2 E2E1"/>
    </vehicle>
    <vehicle id="25" type="typedist1" depart="50.00">
        <route edges="B3B4 B4B3 B3B2 B2A2"/>
    </vehicle>
    <vehicle id="26" type="typedist1" depart="52.00">
        <route edges="B3A3 A3A2 A2A1 A1A0 A0B0"/>
    </vehicle>
    <vehicle id="27" type="typedist1" depart="54.00">
        <route edges="E2E1 E1E0 E0D0 D0C0 C0D0"/>
    </vehicle>
    <vehicle id="28" type="typedist1" depart="56.00">
        <route edges="B3B2 B2B1 B1B0 B0B1"/>
    </vehicle>
    <vehicle id="29" type="typedist1" depart="58.00">
        <route edges="B1B2 B2B3 B3C3 C3C2"/>
    </vehicle>
    <vehicle id="30" type="typedist1" depart="60.00">
        <route edges="C0D0 D0E0 E0E1 E1E2 E2E3"/>
    </vehicle>
    <vehicle id="31" type="typedist1" depart="62.00">
        <route edges="A0A1 A1B1 B1C1 C1B1"/>
    </vehicle>
    <vehicle id="32" type="typedist1" depart="64.00">
        <route edges="B4C4 C4C3 C3C2 C2C1 C1B1"/>
    </vehicle>
    <vehicle id="33" type="typedist1" depart="66.00">
        <route edges="D1D0 D0D1 D1D2 D2D1"/>
    </vehicle>
    <vehicle id="34" type="typedist1" depart="68.00">
        <route edges="C0C1 C1C2 C2C3 C3C4 C4B4 B4A4 A4A3"/>
    </vehicle>
    <vehicle id="35" type="typedist1" depart="70.00">
        <route edges="B4B3 B3B2 B2C2 C2C1 C1B1"/>
    </vehicle>
    <vehicle id="36" type="typedist1" depart="72.00">
        <route edges="C2D2 D2C2 C2B2 B2A2 A2A3"/>
    </vehicle>
    <vehicle id="37" type="typedist1" depart="74.00">
        <route edges="E2E1 E1D1 D1C1 C1C2 C2C3 C3C4 C4C3"/>
    </vehicle>
    <vehicle id="38" type="typedist1" depart="76.00">
        <route edges="D1C1 C1C2 C2C3 C3D3"/>
    </vehicle>
    <vehicle id="39" type="typedist1" depart="78.00">
        <route edges="C2D2 D2D1 D1D0 D0C0"/>
    </vehicle>
    <vehicle id="40" type="typedist1" depart="80.00">
        <route edges="B0B1 B1C1 C1D1 D1E1 E1E0 E0D0"/>
    </vehicle>
    <vehicle id="41" type="typedist1" depart="82.00">
        <route edges="A0B0"/>
    </vehicle>
    <vehicle id="42" type="typedist1" depart="84.00">
        <route edges="D3D2 D2C2 C2B2 B2B3 B3B4 B4C4"/>
    </vehicle>
    <vehicle id="43" type="typedist1" depart="86.00">
        <route edges="C1C0 C0B0 B0B1 B1B2 B2B1"/>
    </vehicle>
    <vehicle id="44" type="typedist1" depart="88.00">
        <route edges="D3D4 D4C4"/>
    </vehicle>
    <vehicle id="45" type="typedist1" depart="90.00">
        <route edges="C0D0 D0E0 E0E1"/>
    </vehicle>
    <vehicle id="46" type="typedist1" depart="92.00">
        <route edges="B3C3 C3D3 D3D2 D2E2"/>
    </vehicle>
    <vehicle id="47" type="typedist1" depart="94.00">
        <route edges="D2D3 D3E3 E3E2 E2E1 E1D1"/>
    </vehicle>
    <vehicle id="48" type="typedist1" depart="96.00">
        <route edges="D3D2 D2C2 C2B2 B2B3 B3B4 B4C4"/>
    </vehicle>
    <vehicle id="49" type="typedist1" depart="98.00">
        <route edges="C1B1 B1B0 B0C0 C0D0 D0E0 E0E1"/>
    </vehicle>
    <vehicle id="50" type="typedist1" depart="100.00">
        <route edges="E4D4 D4D3 D3D2 D2D1 D1D0 D0C0"/>
    </vehicle>
    <vehicle id="51" type="typedist1" depart="102.00">
        <route edges="A3B3 B3C3 C3B3"/>
    </vehicle>
    <vehicle id="52" type="typedist1" depart="104.00">
        <route edges="E1E2 E2E3 E3D3 D3D4"/>
    </vehicle>
    <vehicle id="53" type="typedist1" depart="106.00">
        <route edges="E0D0 D0C0 C0B0 B0B1 B1B2 B2B3 B3B4 B4A4"/>
    </vehicle>
    <vehicle id="54" type="typedist1" depart="108.00">
        <route edges="D2D3 D3D2 D2D1 D1D0 D0E0 E0E1"/>
    </vehicle>
    <vehicle id="55" type="typedist1" depart="110.00">
        <route edges="B0C0 C0C1 C1C2 C2D2 D2C2"/>
    </vehicle>
    <vehicle id="56" type="typedist1" depart="112.00">
        <route edges="A3A4 A4B4 B4C4 C4D4 D4D3 D3D2 D2D1 D1D0"/>
    </vehicle>
    <vehicle id="57" type="typedist1" depart="114.00">
        <route edges="C3D3 D3E3 E3E2 E2E3"/>
    </vehicle>
    <vehicle id="58" type="typedist1" depart="116.00">
        <route edges="B3A3 A3A2 A2A1 A1A0 A0B0 B0C0 C0D0 D0E0"/>
    </vehicle>
    <vehicle id="59" type="typedist1" depart="118.00">
        <route edges="A4A3 A3B3 B3C3 C3D3 D3E3 E3E2 E2E1 E1D1"/>
    </vehicle>
    <vehicle id="60" type="typedist1" depart="120.00">
        <route edges="D1C1 C1C2 C2D2"/>
    </vehicle>
    <vehicle id="61" type="typedist1" depart="122.00">
        <route edges="E0E1 E1E2 E2E3 E3D3 D3C3 C3C2"/>
    </vehicle>
    <vehicle id="62" type="typedist1" depart="124.00">
        <route edges="B1B2 B2B3 B3A3 A3A4 A4B4"/>
    </vehicle>
    <vehicle id="63" type="typedist1" depart="126.00">
        <route edges="D2D1 D1D2 D2D3 D3E3 E3D3"/>
    </vehicle>
    <vehicle id="64" type="typedist1" depart="128.00">
        <route edges="B1C1 C1B1 B1B2 B2B3 B3B4"/>
    </vehicle>
    <vehicle id="65" type="typedist1" depart="130.00">
        <route edges="B0A0 A0A1 A1A2 A2A1"/>
    </vehicle>
    <vehicle id="66" type="typedist1" depart="132.00">
        <route edges="E1E2 E2E3 E3E4 E4D4 D4C4 C4B4 B4A4 A4A3"/>
    </vehicle>
    <vehicle id="67" type="typedist1" depart="134.00">
        <route edges="A0A1 A1B1"/>
    </vehicle>
    <vehicle id="68" type="typedist1" depart="136.00">
        <route edges="E0E1 E1E2 E2E3 E3E2"/>
    </vehicle>
    <vehicle id="69" type="typedist1" depart="138.00">
        <route edges="D2C2 C2B2 B2B1 B1A1 A1B1"/>
    </vehicle>
    <vehicle id="70" type="typedist1" depart="140.00">
        <route edges="B1A1 A1A2 A2A3 A3B3 B3B2"/>
    </vehicle>
    <vehicle id="71" type="typedist1" depart="142.00">
        <route edges="D3C3 C3C4 C4D4"/>
    </vehicle>
    <vehicle id="72" type="typedist1" depart="144.00">
        <route edges="B3A3 A3A2 A2A1 A1A2"/>
    </vehicle>
    <vehicle id="73" type="typedist1" depart="146.00">
        <route edges="E3E2 E2E1 E1D1 D1C1 C1C0"/>
    </vehicle>
    <vehicle id="74" type="typedist1" depart="148.00">
        <route edges="C4B4 B4C4 C4D4 D4D3 D3D2 D2C2"/>
    </vehicle>
    <vehicle id="75" type="typedist1" depart="150.00">
        <route edges="E0D0 D0C0 C0C1 C1C2"/>
    </vehicle>
    <vehicle id="76" type="typedist1" depart="152.00">
        <route edges="A1A2 A2B2 B2C2 C2D2 D2D1"/>
    </vehicle>
    <vehicle id="77" type="typedist1" depart="154.00">
        <route edges="C3C4 C4C3 C3C2 C2C1 C1C0"/>
    </vehicle>
    <vehicle id="78" type="typedist1" depart="156.00">
        <route edges="E3E4 E4D4 D4E4 E4E3 E3E2 E2E3"/>
    </vehicle>
    <vehicle id="79" type="typedist1" depart="158.00">
        <route edges="D0E0 E0E1 E1E2 E2E3 E3D3 D3C3 C3C4"/>
    </vehicle>
    <vehicle id="80" type="typedist1" depart="160.00">
        <route edges="B4B3 B3C3 C3C2"/>
    </vehicle>
    <vehicle id="81" type="typedist1" depart="162.00">
        <route edges="A1A0 A0B0 B0B1 B1B2 B2A2"/>
    </vehicle>
    <vehicle id="82" type="typedist1" depart="164.00">
        <route edges="C4D4 D4D3 D3D2 D2C2 C2B2 B2A2"/>
    </vehicle>
    <vehicle id="83" type="typedist1" depart="166.00">
        <route edges="A1A0 A0B0 B0C0 C0C1 C1C2"/>
    </vehicle>
    <vehicle id="84" type="typedist1" depart="168.00">
        <route edges="D4D3 D3D2 D2D1 D1D0 D0C0 C0B0 B0B1"/>
    </vehicle>
    <vehicle id="85" type="typedist1" depart="170.00">
        <route edges="D3E3 E3E2 E2D2 D2D3"/>
    </vehicle>
    <vehicle id="86" type="typedist1" depart="172.00">
        <route edges="E1E2 E2E1 E1E0 E0D0 D0E0 E0E1"/>
    </vehicle>
    <vehicle id="87" type="typedist1" depart="174.00">
        <route edges="D4C4 C4C3 C3C2 C2D2"/>
    </vehicle>
    <vehicle id="88" type="typedist1" depart="176.00">
        <route edges="C1D1 D1D2 D2D3 D3D4 D4C4 C4B4"/>
    </vehicle>
    <vehicle id="89" type="typedist1" depart="178.00">
        <route edges="A1A0 A0B0 B0B1 B1C1"/>
    </vehicle>
    <vehicle id="90" type="typedist1" depart="180.00">
        <route edges="E2E1 E1D1 D1D2 D2D1"/>
    </vehicle>
    <vehicle id="91" type="typedist1" depart="182.00">
        <route edges="D2D3 D3D2 D2C2 C2C3"/>
    </vehicle>
    <vehicle id="92" type="typedist1" depart="184.00">
        <route edges="D1E1 E1D1 D1C1 C1C2 C2C3"/>
    </vehicle>
    <vehicle id="93" type="typedist1" depart="186.00">
        <route edges="D1E1 E1E2 E2E3 E3E4 E4D4 D4C4 C4B4"/>
    </vehicle>
    <vehicle id="94" type="typedist1" depart="188.00">
        <route edges="B3B4 B4C4 C4C3 C3C4"/>
    </vehicle>
    <vehicle id="95" type="typedist1" depart="190.00">
        <route edges="C2C3 C3D3 D3C3"/>
    </vehicle>
    <vehicle id="96" type="typedist1" depart="192.00">
        <route edges="E1E2 E2E1 E1D1 D1E1"/>
    </vehicle>
    <vehicle id="97" type="typedist1" depart="194.00">
        <route edges="A2A1 A1A2 A2A3 A3B3 B3A3"/>
    </vehicle>
    <vehicle id="98" type="typedist1" depart="196.00">
        <route edges="B0A0 A0A1 A1A2 A2A3 A3B3 B3B2"/>
    </vehicle>
    <vehicle id="99" type="typedist1" depart="198.00">
        <route edges="E2E1 E1D1 D1D0"/>
    </vehicle>
    <vehicle id="100" type="typedist1" depart="200.00">
        <route edges="C1D1 D1D2 D2D3 D3D4 D4C4 C4B4 B4A4 A4A3"/>
    </vehicle>
    <vehicle id="101" type="typedist1" depart="202.00">
        <route edges="D3E3 E3D3 D3C3 C3B3 B3A3 A3B3"/>
    </vehicle>
    <vehicle id="102" type="typedist1" depart="204.00">
        <route edges="B4B3 B3A3 A3A2"/>
    </vehicle>
    <vehicle id="103" type="typedist1" depart="206.00">
        <route edges="C0D0 D0C0 C0B0 B0A0 A0A1 A1A2 A2A3"/>
    </vehicle>
    <vehicle id="104" type="typedist1" depart="208.00">
        <route edges="A1B1 B1B2 B2B3 B3C3 C3D3 D3E3 E3E2"/>
    </vehicle>
    <vehicle id="105" type="typedist1" depart="210.00">
        <route edges="A1A2 A2B2 B2B1 B1B0 B0C0 C0D0"/>
    </vehicle>
    <vehicle id="106" type="typedist1" depart="212.00">
        <route edges="B1B0 B0C0"/>
    </vehicle>
    <vehicle id="107" type="typedist1" depart="214.00">
        <route edges="D2C2 C2D2 D2D1 D1D0 D0C0"/>
    </vehicle>
    <vehicle id="108" type="typedist1" depart="216.00">
        <route edges="A1A2 A2B2 B2B1"/>
    </vehicle>
    <vehicle id="109" type="typedist1" depart="218.00">
        <route edges="D0C0 C0B0 B0A0 A0A1 A1A2 A2A3 A3A4"/>
    </vehicle>
    <vehicle id="110" type="typedist1" depart="220.00">
        <route edges="B3B2 B2B3 B3B4 B4C4"/>
    </vehicle>
    <vehicle id="111" type="typedist1" depart="222.00">
        <route edges="C2B2 B2C2 C2D2 D2E2 E2E1 E1D1"/>
    </vehicle>
    <vehicle id="112" type="typedist1" depart="224.00">
        <route edges="D2E2 E2D2 D2C2 C2B2 B2B3 B3B4"/>
    </vehicle>
    <vehicle id="113" type="typedist1" depart="226.00">
        <route edges="D3D2 D2C2 C2B2 B2B3 B3B4 B4C4"/>
    </vehicle>
    <vehicle id="114" type="typedist1" depart="228.00">
        <route edges="D3C3 C3B3 B3A3 A3B3"/>
    </vehicle>
    <vehicle id="115" type="typedist1" depart="230.00">
        <route edges="C1C2 C2C3"/>
    </vehicle>
    <vehicle id="116" type="typedist1" depart="232.00">
        <route edges="E1D1 D1E1 E1E0 E0D0"/>
    </vehicle>
    <vehicle id="117" type="typedist1" depart="234.00">
        <route edges="E4D4 D4D3 D3D2 D2D1 D1C1 C1C2"/>
    </vehicle>
    <vehicle id="118" type="typedist1" depart="236.00">
        <route edges="D0E0 E0E1 E1E2 E2E3 E3E4 E4D4 D4C4 C4D4"/>
    </vehicle>
    <vehicle id="119" type="typedist1" depart="238.00">
        <route edges="B2C2 C2C3 C3D3 D3C3"/>
    </vehicle>
    <vehicle id="120" type="typedist1" depart="240.00">
        <route edges="B2B1 B1B2 B2B3 B3C3 C3C2"/>
    </vehicle>
    <vehicle id="121" type="typedist1" depart="242.00">
        <route edges="D2E2 E2D2 D2C2 C2B2 B2A2 A2A3"/>
    </vehicle>
    <vehicle id="122" type="typedist1" depart="244.00">
        <route edges="C0D0 D0C0 C0B0 B0B1 B1B2"/>
    </vehicle>
    <vehicle id="123" type="typedist1" depart="246.00">
        <route edges="E1E0 E0D0 D0D1 D1D2 D2D3 D3E3 E3E2"/>
    </vehicle>
    <vehicle id="124" type="typedist1" depart="248.00">
        <route edges="B1C1 C1D1 D1E1 E1E2"/>
    </vehicle>
    <vehicle id="125" type="typedist1" depart="250.00">
        <route edges="A4B4 B4C4 C4D4 D4E4"/>
    </vehicle>
    <vehicle id="126" type="typedist1" depart="252.00">
        <route edges="B0B1 B1B2 B2B3 B3B4 B4C4 C4D4 D4E4"/>
    </vehicle>
    <vehicle id="127" type="typedist1" depart="254.00">
        <route edges="C3B3 B3B2 B2B1 B1B0 B0C0"/>
    </vehicle>
    <vehicle id="128" type="typedist1" depart="256.00">
        <route edges="C0C1 C1B1 B1C1"/>
    </vehicle>
    <vehicle id="129" type="typedist1" depart="258.00">
        <route edges="A1B1 B1C1 C1D1"/>
    </vehicle>
    <vehicle id="130" type="typedist1" depart="260.00">
        <route edges="E3E4 E4D4 D4C4 C4C3 C3C2"/>
    </vehicle>
    <vehicle id="131" type="typedist1" depart="262.00">
        <route edges="A2B2 B2C2 C2D2 D2D1 D1D2"/>
    </vehicle>
    <vehicle id="132" type="typedist1" depart="264.00">
        <route edges="A1A2 A2B2 B2B1 B1B0 B0A0"/>
    </vehicle>
    <vehicle id="133" type="typedist1" depart="266.00">
        <route edges="D0E0 E0E1 E1D1 D1C1 C1C2 C2D2"/>
    </vehicle>
    <vehicle id="134" type="typedist1" depart="268.00">
        <route edges="E4D4 D4C4 C4B4 B4A4 A4A3 A3A2 A2B2"/>
    </vehicle>
    <vehicle id="135" type="typedist1" depart="270.00">
        <route edges="B4A4 A4A3 A3B3 B3C3 C3C4"/>
    </vehicle>
    <vehicle id="136" type="typedist1" depart="272.00">
        <route edges="D4E4 E4E3 E3E2 E2E1 E1D1 D1C1 C1B1 B1A1 A1B1"/>
    </vehicle>
    <vehicle id="137" type="typedist1" depart="274.00">
        <route edges="C2D2 D2D3 D3E3 E3D3"/>
    </vehicle>
    <vehicle id="138" type="typedist1" depart="276.00">
        <route edges="C1B1 B1B2 B2B3 B3C3 C3D3"/>
    </vehicle>
    <vehicle id="139" type="typedist1" depart="278.00">
        <route edges="D2D3 D3C3 C3B3 B3A3 A3A4 A4B4"/>
    </vehicle>
    <vehicle id="140" type="typedist1" depart="280.00">
        <route edges="C1C0 C0D0 D0D1"/>
    </vehicle>
    <vehicle id="141" type="typedist1" depart="282.00">
        <route edges="D2D1 D1D2 D2D3 D3D4"/>
    </vehicle>
    <vehicle id="142" type="typedist1" depart="284.00">
        <route edges="D3D2 D2C2 C2B2 B2A2 A2A3 A3A4"/>
    </vehicle>
    <vehicle id="143" type="typedist1" depart="286.00">
        <route edges="D0C0 C0B0 B0B1 B1B2 B2B3 B3B4 B4B3"/>
    </vehicle>
    <vehicle id="144" type="typedist1" depart="288.00">
        <route edges="D4E4 E4E3 E3E2 E2E1 E1E0 E0D0 D0C0 C0B0 B0B1"/>
    </vehicle>
    <vehicle id="145" type="typedist1" depart="290.00">
        <route edges="E2D2 D2C2 C2C3"/>
    </vehicle>
    <vehicle id="146" type="typedist1" depart="292.00">
        <route edges="B2B1 B1B0 B0C0 C0D0 D0C0"/>
    </vehicle>
    <vehicle id="147" type="typedist1" depart="294.00">
        <route edges="B3C3 C3B3 B3B2"/>
    </vehicle>
    <vehicle id="148" type="typedist1" depart="296.00">
        <route edges="D4D3 D3D2 D2C2 C2B2 B2B3"/>
    </vehicle>
    <vehicle id="149" type="typedist1" depart="298.00">
        <route edges="B1B2 B2B1 B1A1 A1B1"/>
    </vehicle>
    <vehicle id="150" type="typedist1" depart="300.00">
        <route edges="A1A0 A0B0 B0B1 B1A1"/>
    </vehicle>
    <vehicle id="151" type="typedist1" depart="302.00">
        <route edges="C2C1 C1C2 C2C3 C3C4 C4D4"/>
    </vehicle>
    <vehicle id="152" type="typedist1" depart="304.00">
        <route edges="E3E4 E4D4 D4C4 C4B4 B4A4 A4A3 A3A4 A4B4"/>
    </vehicle>
    <vehicle id="153" type="typedist1" depart="306.00">
        <route edges="B4B3 B3B2 B2C2 C2D2 D2E2 E2E3"/>
    </vehicle>
    <vehicle id="154" type="typedist1" depart="308.00">
        <route edges="C2D2 D2C2 C2B2 B2A2 A2A3"/>
    </vehicle>
    <vehicle id="155" type="typedist1" depart="310.00">
        <route edges="D3D2 D2D3 D3E3 E3E4 E4D4"/>
    </vehicle>
    <vehicle id="156" type="typedist1" depart="312.00">
        <route edges="D1D0 D0D1 D1C1"/>
    </vehicle>
    <vehicle id="157" type="typedist1" depart="314.00">
        <route edges="C1C2 C2B2 B2B3"/>
    </vehicle>
    <vehicle id="158" type="typedist1" depart="316.00">
        <route edges="A2A3 A3B3 B3C3 C3D3 D3D2 D2D1 D1D0"/>
    </vehicle>
    <vehicle id="159" type="typedist1" depart="318.00">
        <route edges="D0D1 D1D2 D2D3 D3C3 C3B3 B3A3 A3A4"/>
    </vehicle>
    <vehicle id="160" type="typedist1" depart="320.00">
        <route edges="C1C0 C0B0 B0B1 B1B2 B2B3 B3B4 B4C4"/>
    </vehicle>
    <vehicle id="161" type="typedist1" depart="322.00">
        <route edges="C2C1 C1B1 B1B0 B0C0"/>
    </vehicle>
    <vehicle id="162" type="typedist1" depart="324.00">
        <route edges="C0B0 B0B1 B1C1 C1D1 D1D0"/>
    </vehicle>
    <vehicle id="163" type="typedist1" depart="326.00">
        <route edges="D2D3 D3C3 C3B3 B3B2"/>
    </vehicle>
    <vehicle id="164" type="typedist1" depart="328.00">
        <route edges="D3D2 D2C2 C2B2 B2A2 A2A3 A3A4 A4B4"/>
    </vehicle>
    <vehicle id="165" type="typedist1" depart="330.00">
        <route edges="B2A2 A2A3 A3B3"/>
    </vehicle>
    <vehicle id="166" type="typedist1" depart="332.00">
        <route edges="D0D1 D1C1 C1C0"/>
    </vehicle>
    <vehicle id="167" type="typedist1" depart="334.00">
        <route edges="D4C4 C4C3 C3C2 C2C1 C1C0 C0B0"/>
    </vehicle>
    <vehicle id="168" type="typedist1" depart="336.00">
        <route edges="D1D2 D2C2 C2C3"/>
    </vehicle>
    <vehicle id="169" type="typedist1" depart="338.00">
        <route edges="B1B0 B0B1 B1B2 B2C2 C2C3"/>
    </vehicle>
    <vehicle id="170" type="typedist1" depart="340.00">
        <route edges="D1D2 D2D3"/>
    </vehicle>
    <vehicle id="171" type="typedist1" depart="342.00">
        <route edges="D3C3 C3B3"/>
    </vehicle>
    <vehicle id="172" type="typedist1" depart="344.00">
        <route edges="C2C3 C3C2"/>
    </vehicle>
    <vehicle id="173" type="typedist1" depart="346.00">
        <route edges="C0D0 D0C0 C0B0"/>
    </vehicle>
    <vehicle id="174" type="typedist1" depart="348.00">
        <route edges="C1B1 B1B2 B2C2 C2D2 D2E2 E2E1"/>
    </vehicle>
    <vehicle id="175" type="typedist1" depart="350.00">
        <route edges="B3B4 B4C4 C4D4 D4E4 E4E3 E3E2 E2E1 E1E0 E0D0"/>
    </vehicle>
    <vehicle id="176" type="typedist1" depart="352.00">
        <route edges="D2D1 D1C1 C1B1 B1A1 A1B1"/>
    </vehicle>
    <vehicle id="177" type="typedist1" depart="354.00">
        <route edges="D0E0 E0E1 E1E2 E2E3 E3E4 E4D4 D4C4 C4C3"/>
    </vehicle>
    <vehicle id="178" type="typedist1" depart="356.00">
        <route edges="A4B4"/>
    </vehicle>
    <vehicle id="179" type="typedist1" depart="358.00">
        <route edges="D4D3 D3D2 D2D1 D1D0 D0C0 C0B0 B0A0 A0A1"/>
    </vehicle>
    <vehicle id="180" type="typedist1" depart="360.00">
        <route edges="D1D2 D2D3 D3D4 D4C4 C4B4 B4C4"/>
    </vehicle>
    <vehicle id="181" type="typedist1" depart="362.00">
        <route edges="B2B1 B1B2 B2B3 B3B4 B4C4 C4D4"/>
    </vehicle>
    <vehicle id="182" type="typedist1" depart="364.00">
        <route edges="B4B3 B3B2 B2B1 B1A1 A1A0"/>
    </vehicle>
    <vehicle id="183" type="typedist1" depart="366.00">
        <route edges="A1A0 A0B0 B0C0 C0C1 C1C2 C2C3 C3D3"/>
    </vehicle>
    <vehicle id="184" type="typedist1" depart="368.00">
        <route edges="A4B4 B4C4 C4D4 D4D3 D3D2 D2D1 D1D0 D0D1"/>
    </vehicle>
    <vehicle id="185" type="typedist1" depart="370.00">
        <route edges="E3D3 D3D2 D2D1 D1C1"/>
    </vehicle>
    <vehicle id="186" type="typedist1" depart="372.00">
        <route edges="B1A1 A1A0 A0B0 B0C0 C0D0 D0E0"/>
    </vehicle>
    <vehicle id="187" type="typedist1" depart="374.00">
        <route edges="B1C1 C1D1 D1E1"/>
    </vehicle>
    <vehicle id="188" type="typedist1" depart="376.00">
        <route edges="B1A1 A1A0 A0B0 B0C0 C0D0 D0D1"/>
    </vehicle>
    <vehicle id="189" type="typedist1" depart="378.00">
        <route edges="C2B2 B2A2 A2B2"/>
    </vehicle>
    <vehicle id="190" type="typedist1" depart="380.00">
        <route edges="B3A3 A3B3 B3C3 C3D3 D3E3 E3E2 E2E1"/>
    </vehicle>
    <vehicle id="191" type="typedist1" depart="382.00">
        <route edges="A1B1 B1B2 B2B3 B3C3 C3D3 D3E3 E3D3"/>
    </vehicle>
    <vehicle id="192" type="typedist1" depart="384.00">
        <route edges="B1B2 B2B3 B3C3"/>
    </vehicle>
    <vehicle id="193" type="typedist1" depart="386.00">
        <route edges="A0A1 A1B1 B1B0 B0C0 C0D0"/>
    </vehicle>
    <vehicle id="194" type="typedist1" depart="388.00">
        <route edges="D2E2 E2E3 E3E4"/>
    </vehicle>
    <vehicle id="195" type="typedist1" depart="390.00">
        <route edges="E3D3 D3C3 C3B3 B3A3 A3A2 A2A1"/>
    </vehicle>
    <vehicle id="196" type="typedist1" depart="392.00">
        <route edges="B1B2 B2C2 C2C1 C1C0"/>
    </vehicle>
    <vehicle id="197" type="typedist1" depart="394.00">
        <route edges="A2B2 B2C2 C2C3 C3D3 D3E3 E3E2"/>
    </vehicle>
    <vehicle id="198" type="typedist1" depart="396.00">
        <route edges="C4D4 D4C4 C4B4 B4C4"/>
    </vehicle>
    <vehicle id="199" type="typedist1" depart="398.00">
        <route edges="C4B4 B4A4 A4A3"/>
    </vehicle>
</routes>
