<?xml version="1.0" encoding="UTF-8"?>
<!-- generated on 2020-04-14 10:18:38.075047 by $Id$
  options: -n test.net.xml -o 100Vehicles.trips.xml -b 0 -e 1000 -p 10
-->
<routes xmlns:xsi="http://www.w3.org/2001/XMLSchema-instance" xsi:noNamespaceSchemaLocation="http://sumo.dlr.de/xsd/routes_file.xsd">
    <trip id="0" depart="0.00" from="C1C2" to="E2E3"/>
    <trip id="1" depart="10.00" from="B2C2" to="D1C1"/>
    <trip id="2" depart="20.00" from="B4C4" to="C0C1"/>
    <trip id="3" depart="30.00" from="B4A4" to="A2A3"/>
    <trip id="4" depart="40.00" from="D2E2" to="E3E2"/>
    <trip id="5" depart="50.00" from="E2E3" to="C2B2"/>
    <trip id="6" depart="60.00" from="A1A2" to="B3B2"/>
    <trip id="7" depart="70.00" from="E2D2" to="C0D0"/>
    <trip id="8" depart="80.00" from="A3A4" to="D4C4"/>
    <trip id="9" depart="90.00" from="E4D4" to="E0D0"/>
    <trip id="10" depart="100.00" from="C1D1" to="A2A3"/>
    <trip id="11" depart="110.00" from="B0C0" to="A4B4"/>
    <trip id="12" depart="120.00" from="B0B1" to="C2C3"/>
    <trip id="13" depart="130.00" from="D1D2" to="C4B4"/>
    <trip id="14" depart="140.00" from="D1E1" to="B2B1"/>
    <trip id="15" depart="150.00" from="C1D1" to="B3B2"/>
    <trip id="16" depart="160.00" from="B2C2" to="C3D3"/>
    <trip id="17" depart="170.00" from="C3D3" to="D0C0"/>
    <trip id="18" depart="180.00" from="C1C2" to="D3D4"/>
    <trip id="19" depart="190.00" from="B4A4" to="D1E1"/>
    <trip id="20" depart="200.00" from="B1A1" to="D2D3"/>
    <trip id="21" depart="210.00" from="B3B4" to="B1A1"/>
    <trip id="22" depart="220.00" from="A1A0" to="C4C3"/>
    <trip id="23" depart="230.00" from="B2B3" to="D3D4"/>
    <trip id="24" depart="240.00" from="B1A1" to="E1E0"/>
    <trip id="25" depart="250.00" from="C0D0" to="E1D1"/>
    <trip id="26" depart="260.00" from="C2C1" to="D3D4"/>
    <trip id="27" depart="270.00" from="C3C2" to="A4B4"/>
    <trip id="28" depart="280.00" from="B4C4" to="E3E2"/>
    <trip id="29" depart="290.00" from="C3C4" to="B2B3"/>
    <trip id="30" depart="300.00" from="D1C1" to="E4D4"/>
    <trip id="31" depart="310.00" from="A1B1" to="B3A3"/>
    <trip id="32" depart="320.00" from="A1B1" to="A1B1"/>
    <trip id="33" depart="330.00" from="C3B3" to="C3D3"/>
    <trip id="34" depart="340.00" from="D2E2" to="B1B2"/>
    <trip id="35" depart="350.00" from="D4D3" to="B1B0"/>
    <trip id="36" depart="360.00" from="D1E1" to="E0E1"/>
    <trip id="37" depart="370.00" from="D3D4" to="C3C2"/>
    <trip id="38" depart="380.00" from="A3A4" to="C1B1"/>
    <trip id="39" depart="390.00" from="B2A2" to="E3D3"/>
    <trip id="40" depart="400.00" from="E0E1" to="C4D4"/>
    <trip id="41" depart="410.00" from="B4B3" to="D4E4"/>
    <trip id="42" depart="420.00" from="D1D2" to="D0E0"/>
    <trip id="43" depart="430.00" from="C2D2" to="B0C0"/>
    <trip id="44" depart="440.00" from="C3C2" to="D3D4"/>
    <trip id="45" depart="450.00" from="C2C1" to="C1B1"/>
    <trip id="46" depart="460.00" from="B0B1" to="A1B1"/>
    <trip id="47" depart="470.00" from="C3D3" to="D2E2"/>
    <trip id="48" depart="480.00" from="A0A1" to="E3E4"/>
    <trip id="49" depart="490.00" from="C0C1" to="C3C4"/>
    <trip id="50" depart="500.00" from="C2C3" to="B3A3"/>
    <trip id="51" depart="510.00" from="C0D0" to="E3D3"/>
    <trip id="52" depart="520.00" from="B0C0" to="A2B2"/>
    <trip id="53" depart="530.00" from="A4A3" to="E3D3"/>
    <trip id="54" depart="540.00" from="E0E1" to="D0C0"/>
    <trip id="55" depart="550.00" from="D2E2" to="C2B2"/>
    <trip id="56" depart="560.00" from="D1E1" to="D3C3"/>
    <trip id="57" depart="570.00" from="D4D3" to="C3B3"/>
    <trip id="58" depart="580.00" from="E0E1" to="B2C2"/>
    <trip id="59" depart="590.00" from="D0E0" to="B3B4"/>
    <trip id="60" depart="600.00" from="E2E1" to="C3B3"/>
    <trip id="61" depart="610.00" from="D4D3" to="B4A4"/>
    <trip id="62" depart="620.00" from="B1B0" to="C3C4"/>
    <trip id="63" depart="630.00" from="C0C1" to="D2C2"/>
    <trip id="64" depart="640.00" from="E4D4" to="E1E2"/>
    <trip id="65" depart="650.00" from="B1B2" to="A2A1"/>
    <trip id="66" depart="660.00" from="C0C1" to="B3B4"/>
    <trip id="67" depart="670.00" from="A3A2" to="B0C0"/>
    <trip id="68" depart="680.00" from="E4D4" to="C1C0"/>
    <trip id="69" depart="690.00" from="A3B3" to="E4E3"/>
    <trip id="70" depart="700.00" from="A0B0" to="A1A2"/>
    <trip id="71" depart="710.00" from="B3B2" to="C0D0"/>
    <trip id="72" depart="720.00" from="C4D4" to="C2D2"/>
    <trip id="73" depart="730.00" from="E4E3" to="C2C1"/>
    <trip id="74" depart="740.00" from="A4A3" to="E4D4"/>
    <trip id="75" depart="750.00" from="C0B0" to="B2C2"/>
    <trip id="76" depart="760.00" from="D3D2" to="A2B2"/>
    <trip id="77" depart="770.00" from="C2D2" to="B0B1"/>
    <trip id="78" depart="780.00" from="E4E3" to="D1C1"/>
    <trip id="79" depart="790.00" from="B2A2" to="B1A1"/>
    <trip id="80" depart="800.00" from="D3C3" to="B2B3"/>
    <trip id="81" depart="810.00" from="B4C4" to="B1C1"/>
    <trip id="82" depart="820.00" from="E3D3" to="D3D4"/>
    <trip id="83" depart="830.00" from="D2E2" to="E0D0"/>
    <trip id="84" depart="840.00" from="E4D4" to="D2D1"/>
    <trip id="85" depart="850.00" from="C3B3" to="D4D3"/>
    <trip id="86" depart="860.00" from="E4E3" to="C0C1"/>
    <trip id="87" depart="870.00" from="C0C1" to="A2B2"/>
    <trip id="88" depart="880.00" from="C0C1" to="D0E0"/>
    <trip id="89" depart="890.00" from="C3C4" to="A0A1"/>
    <trip id="90" depart="900.00" from="D1D0" to="C4C3"/>
    <trip id="91" depart="910.00" from="C3D3" to="D3D4"/>
    <trip id="92" depart="920.00" from="E1E0" to="D4D3"/>
    <trip id="93" depart="930.00" from="B1B0" to="D1D0"/>
    <trip id="94" depart="940.00" from="D0C0" to="D2C2"/>
    <trip id="95" depart="950.00" from="D0C0" to="B0C0"/>
    <trip id="96" depart="960.00" from="E2E3" to="C4C3"/>
    <trip id="97" depart="970.00" from="D4C4" to="B3B2"/>
    <trip id="98" depart="980.00" from="C2C1" to="B0B1"/>
    <trip id="99" depart="990.00" from="C4D4" to="D2D1"/>
</routes>
