<?xml version="1.0" encoding="UTF-8"?>

<!-- generated on Tue Apr 14 10:22:39 2020 by Eclipse SUMO duarouter Version 1.2.0
<configuration xmlns:xsi="http://www.w3.org/2001/XMLSchema-instance" xsi:noNamespaceSchemaLocation="http://sumo.dlr.de/xsd/duarouterConfiguration.xsd">

    <input>
        <net-file value="test.net.xml"/>
        <route-files value="600Vehicles.trips.xml"/>
    </input>

    <output>
        <output-file value="600Vehicles.rou.xml"/>
        <alternatives-output value="600Vehicles.rou.alt.xml"/>
    </output>

    <report>
        <ignore-errors value="true"/>
    </report>

</configuration>
-->

<routes xmlns:xsi="http://www.w3.org/2001/XMLSchema-instance" xsi:noNamespaceSchemaLocation="http://sumo.dlr.de/xsd/routes_file.xsd">
    <vehicle id="0" depart="0.00">
        <route edges="B0A0 A0A1 A1A2 A2B2 B2C2 C2C1"/>
    </vehicle>
    <vehicle id="2" depart="3.33">
        <route edges="B2C2 C2D2 D2D1 D1C1 C1C2"/>
    </vehicle>
    <vehicle id="3" depart="5.00">
        <route edges="B4A4 A4A3 A3A2 A2A1 A1A0 A0B0 B0C0 C0D0 D0E0 E0E1"/>
    </vehicle>
    <vehicle id="4" depart="6.67">
        <route edges="C2D2 D2E2 E2E1 E1E0 E0D0 D0D1 D1E1"/>
    </vehicle>
    <vehicle id="5" depart="8.33">
        <route edges="D4D3 D3C3 C3C4 C4D4 D4E4 E4E3 E3E2 E2D2 D2D3"/>
    </vehicle>
    <vehicle id="6" depart="10.00">
        <route edges="B4B3 B3A3 A3A4 A4B4 B4C4 C4C3"/>
    </vehicle>
    <vehicle id="7" depart="11.67">
        <route edges="A4A3 A3A2 A2A1 A1A0 A0B0"/>
    </vehicle>
    <vehicle id="8" depart="13.33">
        <route edges="E0D0 D0D1 D1D2 D2D3 D3D4"/>
    </vehicle>
    <vehicle id="10" depart="16.67">
        <route edges="C3B3 B3B4 B4C4 C4D4 D4D3 D3D2 D2D1"/>
    </vehicle>
    <vehicle id="12" depart="20.00">
        <route edges="E3E2 E2D2 D2C2 C2C3 C3C4 C4D4 D4D3"/>
    </vehicle>
    <vehicle id="13" depart="21.67">
        <route edges="A1B1 B1B0 B0A0 A0A1 A1A2 A2A3 A3A4 A4B4 B4C4 C4D4 D4D3"/>
    </vehicle>
    <vehicle id="15" depart="25.00">
        <route edges="D1C1 C1C2 C2D2 D2D1 D1D0 D0C0 C0B0 B0B1 B1C1"/>
    </vehicle>
    <vehicle id="19" depart="31.67">
        <route edges="C1D1 D1D0 D0C0 C0C1 C1C2 C2D2 D2D1 D1C1"/>
    </vehicle>
    <vehicle id="20" depart="33.33">
        <route edges="D3D4 D4E4 E4E3 E3D3 D3C3 C3C4"/>
    </vehicle>
    <vehicle id="21" depart="35.00">
        <route edges="D3D4 D4E4 E4E3 E3D3 D3C3 C3B3 B3A3 A3A4"/>
    </vehicle>
    <vehicle id="24" depart="40.00">
        <route edges="B2B1 B1B0 B0A0 A0A1 A1B1"/>
    </vehicle>
    <vehicle id="25" depart="41.67">
        <route edges="B0A0 A0A1 A1A2 A2A3 A3B3 B3C3 C3C2 C2B2"/>
    </vehicle>
    <vehicle id="29" depart="48.33">
        <route edges="C2C3 C3C4 C4D4 D4E4"/>
    </vehicle>
    <vehicle id="30" depart="50.00">
        <route edges="A1B1 B1C1 C1D1 D1E1 E1E0"/>
    </vehicle>
    <vehicle id="31" depart="51.67">
        <route edges="D2D1 D1C1 C1C2 C2C3 C3D3 D3E3 E3E2 E2D2 D2D3"/>
    </vehicle>
    <vehicle id="32" depart="53.33">
        <route edges="E4E3 E3E2 E2E1 E1E0 E0D0 D0D1 D1E1"/>
    </vehicle>
    <vehicle id="33" depart="55.00">
        <route edges="B4C4 C4D4 D4E4 E4E3 E3E2 E2E1 E1D1 D1D2 D2E2"/>
    </vehicle>
    <vehicle id="34" depart="56.67">
        <route edges="C1B1 B1B2 B2C2 C2D2 D2E2 E2E1 E1E0 E0D0 D0D1"/>
    </vehicle>
    <vehicle id="36" depart="60.00">
        <route edges="D4E4 E4E3 E3E2 E2E1 E1E0"/>
    </vehicle>
    <vehicle id="38" depart="63.33">
        <route edges="A0B0 B0C0 C0D0 D0E0 E0E1 E1E2 E2E3 E3E4"/>
    </vehicle>
    <vehicle id="40" depart="66.67">
        <route edges="B1A1 A1A2 A2A3 A3A4 A4B4 B4C4 C4D4 D4D3 D3C3"/>
    </vehicle>
    <vehicle id="41" depart="68.33">
        <route edges="E2E1 E1E0 E0D0 D0C0 C0B0 B0A0"/>
    </vehicle>
    <vehicle id="42" depart="70.00">
        <route edges="B2A2 A2A3 A3A4 A4B4 B4C4 C4D4 D4E4 E4E3 E3D3 D3D4"/>
    </vehicle>
    <vehicle id="43" depart="71.67">
        <route edges="D3C3 C3C4 C4D4 D4D3 D3D2 D2D1 D1D0 D0C0 C0B0 B0B1 B1C1"/>
    </vehicle>
    <vehicle id="44" depart="73.33">
        <route edges="B3C3 C3D3 D3D2 D2D1"/>
    </vehicle>
    <vehicle id="45" depart="75.00">
        <route edges="C3B3 B3B4 B4C4 C4D4 D4E4 E4E3 E3E2 E2E1 E1D1"/>
    </vehicle>
    <vehicle id="46" depart="76.67">
        <route edges="C1D1 D1E1 E1E0 E0D0 D0D1 D1D2"/>
    </vehicle>
    <vehicle id="47" depart="78.33">
        <route edges="D1E1 E1E0 E0D0 D0C0 C0B0 B0B1 B1B2"/>
    </vehicle>
    <vehicle id="48" depart="80.00">
        <route edges="D1D0 D0C0 C0C1"/>
    </vehicle>
    <vehicle id="49" depart="81.67">
        <route edges="A3A4 A4B4 B4B3 B3B2 B2B1 B1B0 B0A0 A0A1"/>
    </vehicle>
    <vehicle id="53" depart="88.33">
        <route edges="A0B0 B0C0 C0D0 D0E0 E0E1 E1E2 E2E3 E3E4 E4D4 D4C4 C4B4 B4A4 A4A3"/>
    </vehicle>
    <vehicle id="55" depart="91.67">
        <route edges="A0A1 A1A2 A2B2 B2C2 C2C1 C1B1"/>
    </vehicle>
    <vehicle id="56" depart="93.33">
        <route edges="A2B2 B2C2 C2C1 C1B1"/>
    </vehicle>
    <vehicle id="57" depart="95.00">
        <route edges="C4C3 C3B3 B3B4 B4C4 C4D4 D4D3 D3D2 D2D1 D1D0 D0C0 C0C1"/>
    </vehicle>
    <vehicle id="58" depart="96.67">
        <route edges="D3E3 E3E2 E2E1 E1D1 D1D2"/>
    </vehicle>
    <vehicle id="59" depart="98.33">
        <route edges="B0B1 B1C1 C1C0 C0B0 B0A0 A0A1 A1A2 A2A3 A3A4"/>
    </vehicle>
    <vehicle id="60" depart="100.00">
        <route edges="D2D3 D3E3 E3E2 E2D2 D2C2 C2B2 B2B3 B3C3 C3C2"/>
    </vehicle>
    <vehicle id="61" depart="101.67">
        <route edges="C0C1 C1C2 C2D2 D2D1 D1C1 C1B1 B1A1"/>
    </vehicle>
    <vehicle id="62" depart="103.33">
        <route edges="E4E3 E3E2 E2E1 E1D1 D1C1 C1B1 B1B2 B2C2 C2C1"/>
    </vehicle>
    <vehicle id="63" depart="105.00">
        <route edges="E0D0 D0D1 D1D2 D2D3 D3D4 D4E4"/>
    </vehicle>
    <vehicle id="65" depart="108.33">
        <route edges="B2A2 A2A3 A3A4 A4B4 B4C4 C4C3"/>
    </vehicle>
    <vehicle id="66" depart="110.00">
        <route edges="E3E2 E2E1 E1E0 E0D0"/>
    </vehicle>
    <vehicle id="67" depart="111.67">
        <route edges="B3C3 C3D3 D3D2 D2D1 D1D0 D0C0 C0C1 C1D1"/>
    </vehicle>
    <vehicle id="68" depart="113.33">
        <route edges="C0B0 B0B1 B1B2 B2B3 B3B4 B4C4 C4D4 D4E4 E4E3"/>
    </vehicle>
    <vehicle id="69" depart="115.00">
        <route edges="C1C2 C2C3 C3C4 C4D4 D4D3 D3C3 C3B3 B3A3 A3A4"/>
    </vehicle>
    <vehicle id="70" depart="116.67">
        <route edges="D3D2 D2C2 C2C3 C3C4 C4D4 D4D3"/>
    </vehicle>
    <vehicle id="71" depart="118.33">
        <route edges="B1C1 C1C0 C0B0 B0A0 A0A1 A1A2 A2B2 B2B1 B1A1"/>
    </vehicle>
    <vehicle id="73" depart="121.67">
        <route edges="B3C3 C3C2 C2C1 C1B1 B1A1 A1A2"/>
    </vehicle>
    <vehicle id="74" depart="123.33">
        <route edges="C3C4 C4D4 D4E4 E4E3 E3E2 E2E1 E1E0 E0D0"/>
    </vehicle>
    <vehicle id="75" depart="125.00">
        <route edges="D3C3 C3C4 C4D4 D4E4 E4E3 E3E2 E2D2 D2D3 D3E3"/>
    </vehicle>
    <vehicle id="76" depart="126.67">
        <route edges="C0B0 B0B1 B1C1 C1D1 D1E1 E1E0 E0D0 D0D1"/>
    </vehicle>
    <vehicle id="77" depart="128.33">
        <route edges="D1E1 E1E0 E0D0 D0C0 C0B0 B0B1 B1C1 C1C0"/>
    </vehicle>
    <vehicle id="78" depart="130.00">
        <route edges="D0D1 D1E1 E1E0 E0D0 D0C0 C0B0 B0A0 A0A1 A1A2 A2A3 A3A4 A4B4"/>
    </vehicle>
    <vehicle id="80" depart="133.33">
        <route edges="B3B4 B4C4 C4D4 D4E4 E4E3 E3D3"/>
    </vehicle>
    <vehicle id="82" depart="136.67">
        <route edges="C3C2 C2B2 B2B3"/>
    </vehicle>
    <vehicle id="84" depart="140.00">
        <route edges="C2C3 C3D3 D3D2 D2D1 D1D0 D0C0 C0B0 B0B1 B1C1 C1C0"/>
    </vehicle>
    <vehicle id="85" depart="141.67">
        <route edges="C2C1 C1B1 B1B2 B2B3 B3B4 B4C4 C4C3 C3B3"/>
    </vehicle>
    <vehicle id="87" depart="145.00">
        <route edges="B3A3 A3A4 A4B4 B4C4 C4C3 C3C2 C2B2 B2B3 B3C3"/>
    </vehicle>
    <vehicle id="90" depart="150.00">
        <route edges="B2A2 A2A3 A3B3 B3C3"/>
    </vehicle>
    <vehicle id="91" depart="151.67">
        <route edges="C1C2 C2C3"/>
    </vehicle>
    <vehicle id="95" depart="158.33">
        <route edges="D3C3 C3B3 B3B4 B4C4 C4C3 C3C2 C2C1"/>
    </vehicle>
    <vehicle id="96" depart="160.00">
        <route edges="B3C3 C3D3 D3D2"/>
    </vehicle>
    <vehicle id="97" depart="161.67">
        <route edges="E2E3 E3E4 E4D4"/>
    </vehicle>
    <vehicle id="98" depart="163.33">
        <route edges="D0D1 D1E1 E1E0 E0D0 D0C0 C0C1 C1C2 C2C3 C3D3"/>
    </vehicle>
    <vehicle id="101" depart="168.33">
        <route edges="A3B3 B3B2 B2A2 A2A3 A3A4 A4B4 B4C4 C4D4 D4D3"/>
    </vehicle>
    <vehicle id="103" depart="171.67">
        <route edges="A1A0 A0B0"/>
    </vehicle>
    <vehicle id="105" depart="175.00">
        <route edges="E1D1 D1D2"/>
    </vehicle>
    <vehicle id="106" depart="176.67">
        <route edges="C1B1 B1B2 B2C2 C2D2 D2E2 E2E1 E1E0 E0D0 D0D1 D1E1"/>
    </vehicle>
    <vehicle id="107" depart="178.33">
        <route edges="D1D0 D0C0 C0C1 C1C2 C2C3 C3C4 C4D4 D4D3"/>
    </vehicle>
    <vehicle id="109" depart="181.67">
        <route edges="C4C3 C3B3 B3B4 B4C4 C4D4 D4E4 E4E3 E3E2 E2E1"/>
    </vehicle>
    <vehicle id="110" depart="183.33">
        <route edges="C1C2 C2D2 D2D1 D1C1 C1B1 B1A1 A1A2 A2A3 A3B3 B3B2"/>
    </vehicle>
    <vehicle id="111" depart="185.00">
        <route edges="C0C1 C1D1 D1D0 D0C0 C0B0 B0A0"/>
    </vehicle>
    <vehicle id="112" depart="186.67">
        <route edges="E4E3 E3D3 D3D4"/>
    </vehicle>
    <vehicle id="113" depart="188.33">
        <route edges="B3C3 C3C2 C2B2 B2A2 A2A3 A3A4"/>
    </vehicle>
    <vehicle id="117" depart="195.00">
        <route edges="B3B2 B2A2 A2A3 A3A4 A4B4"/>
    </vehicle>
    <vehicle id="118" depart="196.67">
        <route edges="C0B0 B0B1 B1B2 B2C2 C2C1"/>
    </vehicle>
    <vehicle id="119" depart="198.33">
        <route edges="E1E0 E0D0 D0C0 C0B0 B0A0 A0A1 A1A2 A2A3 A3A4 A4B4"/>
    </vehicle>
    <vehicle id="120" depart="200.00">
        <route edges="E3D3 D3D4 D4E4 E4E3 E3E2 E2E1 E1D1 D1C1 C1C2 C2D2"/>
    </vehicle>
    <vehicle id="121" depart="201.67">
        <route edges="C3C2 C2B2 B2B3 B3B4 B4C4 C4D4 D4E4 E4E3 E3D3"/>
    </vehicle>
    <vehicle id="122" depart="203.33">
        <route edges="A0A1 A1B1"/>
    </vehicle>
    <vehicle id="124" depart="206.67">
        <route edges="A4B4 B4C4 C4C3 C3C2 C2C1 C1B1 B1B2 B2C2"/>
    </vehicle>
    <vehicle id="125" depart="208.33">
        <route edges="A3A4 A4B4 B4C4 C4C3 C3C2 C2C1 C1C0 C0B0"/>
    </vehicle>
    <vehicle id="126" depart="210.00">
        <route edges="B2A2 A2A3 A3B3 B3B2 B2B1 B1A1"/>
    </vehicle>
    <vehicle id="129" depart="215.00">
        <route edges="E2E1 E1E0 E0D0"/>
    </vehicle>
    <vehicle id="130" depart="216.67">
        <route edges="E3D3 D3C3 C3C4 C4D4 D4D3 D3D2 D2D1 D1D0"/>
    </vehicle>
    <vehicle id="131" depart="218.33">
        <route edges="B1C1 C1C0 C0B0 B0A0 A0A1 A1B1"/>
    </vehicle>
    <vehicle id="132" depart="220.00">
        <route edges="B2C2 C2C1 C1B1 B1B2 B2B3 B3B4 B4C4 C4D4 D4E4"/>
    </vehicle>
    <vehicle id="133" depart="221.67">
        <route edges="C1B1 B1B2 B2C2 C2D2 D2E2 E2E1 E1E0 E0D0 D0D1"/>
    </vehicle>
    <vehicle id="134" depart="223.33">
        <route edges="D3D4 D4E4 E4E3 E3E2 E2E1 E1D1 D1C1 C1C2 C2D2 D2D1"/>
    </vehicle>
    <vehicle id="135" depart="225.00">
        <route edges="C1B1 B1B2 B2C2 C2C1 C1C0 C0B0 B0B1"/>
    </vehicle>
    <vehicle id="136" depart="226.67">
        <route edges="B2A2 A2A3 A3B3 B3C3 C3D3 D3E3 E3E2 E2E1 E1D1"/>
    </vehicle>
    <vehicle id="137" depart="228.33">
        <route edges="C3C2 C2B2 B2B3 B3C3 C3D3"/>
    </vehicle>
    <vehicle id="139" depart="231.67">
        <route edges="D2E2 E2E1 E1E0"/>
    </vehicle>
    <vehicle id="140" depart="233.33">
        <route edges="E0D0 D0C0"/>
    </vehicle>
    <vehicle id="141" depart="235.00">
        <route edges="D3D4 D4E4 E4E3 E3E2 E2E1 E1D1 D1C1 C1B1 B1B2 B2C2"/>
    </vehicle>
    <vehicle id="143" depart="238.33">
        <route edges="B1C1 C1C0 C0B0 B0B1 B1B2 B2C2 C2C1 C1B1"/>
    </vehicle>
    <vehicle id="144" depart="240.00">
        <route edges="B1B2 B2B3 B3B4 B4C4 C4C3 C3B3"/>
    </vehicle>
    <vehicle id="145" depart="241.67">
        <route edges="A3A2 A2A1 A1A0 A0B0 B0C0 C0D0"/>
    </vehicle>
    <vehicle id="146" depart="243.33">
        <route edges="D1D0 D0C0 C0B0 B0B1 B1C1"/>
    </vehicle>
    <vehicle id="147" depart="245.00">
        <route edges="B1B0 B0A0 A0A1 A1B1 B1C1 C1C0 C0B0"/>
    </vehicle>
    <vehicle id="148" depart="246.67">
        <route edges="B2B1 B1A1 A1A2 A2B2 B2C2"/>
    </vehicle>
    <vehicle id="150" depart="250.00">
        <route edges="D4E4 E4E3 E3D3 D3C3 C3B3 B3B4"/>
    </vehicle>
    <vehicle id="151" depart="251.67">
        <route edges="A1B1 B1B0 B0A0 A0A1 A1A2 A2A3 A3A4 A4B4 B4C4 C4C3"/>
    </vehicle>
    <vehicle id="152" depart="253.33">
        <route edges="B2A2 A2A3 A3B3 B3C3 C3C2 C2B2"/>
    </vehicle>
    <vehicle id="153" depart="255.00">
        <route edges="D2D1 D1C1 C1C2 C2C3 C3D3 D3D2 D2C2"/>
    </vehicle>
    <vehicle id="155" depart="258.33">
        <route edges="A2A1"/>
    </vehicle>
    <vehicle id="156" depart="260.00">
        <route edges="B3C3 C3C2 C2C1 C1B1 B1A1 A1A2"/>
    </vehicle>
    <vehicle id="157" depart="261.67">
        <route edges="A1B1 B1B0 B0A0 A0A1 A1A2 A2A3 A3B3 B3C3 C3D3"/>
    </vehicle>
    <vehicle id="160" depart="266.67">
        <route edges="E2E1 E1D1 D1C1 C1B1 B1B2 B2B3 B3C3 C3C2"/>
    </vehicle>
    <vehicle id="162" depart="270.00">
        <route edges="D3D4 D4E4 E4E3 E3D3 D3C3 C3B3 B3A3 A3A4 A4B4 B4B3"/>
    </vehicle>
    <vehicle id="164" depart="273.33">
        <route edges="C4D4 D4D3 D3D2 D2D1 D1C1 C1B1"/>
    </vehicle>
    <vehicle id="165" depart="275.00">
        <route edges="C1B1 B1B2 B2C2 C2D2 D2E2 E2E1 E1D1 D1D2"/>
    </vehicle>
    <vehicle id="168" depart="280.00">
        <route edges="B1A1 A1A2 A2B2"/>
    </vehicle>
    <vehicle id="169" depart="281.67">
        <route edges="D0C0 C0C1 C1C2 C2D2"/>
    </vehicle>
    <vehicle id="170" depart="283.33">
        <route edges="A4B4 B4B3 B3B2 B2A2"/>
    </vehicle>
    <vehicle id="171" depart="285.00">
        <route edges="D3D2 D2D1 D1D0 D0C0 C0B0 B0B1 B1C1"/>
    </vehicle>
    <vehicle id="172" depart="286.67">
        <route edges="B3B4 B4C4 C4C3 C3B3 B3A3 A3A4"/>
    </vehicle>
    <vehicle id="174" depart="290.00">
        <route edges="C1B1 B1B2 B2C2 C2D2 D2D1 D1C1 C1C2"/>
    </vehicle>
    <vehicle id="175" depart="291.67">
        <route edges="B4B3 B3B2 B2B1"/>
    </vehicle>
    <vehicle id="176" depart="293.33">
        <route edges="C2C3 C3D3 D3D2 D2C2 C2B2 B2A2 A2A3"/>
    </vehicle>
    <vehicle id="178" depart="296.67">
        <route edges="A2B2 B2C2 C2D2 D2E2 E2E1"/>
    </vehicle>
    <vehicle id="179" depart="298.33">
        <route edges="B3C3 C3C2 C2C1 C1C0 C0B0 B0A0 A0A1 A1B1"/>
    </vehicle>
    <vehicle id="180" depart="300.00">
        <route edges="A1A2 A2A3"/>
    </vehicle>
    <vehicle id="181" depart="301.67">
        <route edges="C2B2 B2B3 B3B4 B4C4"/>
    </vehicle>
    <vehicle id="183" depart="305.00">
        <route edges="C2B2 B2B3 B3C3 C3D3 D3E3 E3E2 E2E1 E1D1"/>
    </vehicle>
    <vehicle id="184" depart="306.67">
        <route edges="D4E4 E4E3 E3E2 E2E1 E1D1 D1C1 C1B1 B1B2 B2C2"/>
    </vehicle>
    <vehicle id="185" depart="308.33">
        <route edges="C0C1 C1C2 C2C3 C3C4 C4D4 D4D3"/>
    </vehicle>
    <vehicle id="186" depart="310.00">
        <route edges="C2C3 C3D3 D3D2 D2D1 D1D0 D0C0 C0B0 B0B1"/>
    </vehicle>
    <vehicle id="187" depart="311.67">
        <route edges="B0B1 B1C1 C1D1 D1D0 D0C0 C0C1"/>
    </vehicle>
    <vehicle id="190" depart="316.67">
        <route edges="B3C3 C3D3 D3E3 E3E2 E2D2 D2D3"/>
    </vehicle>
    <vehicle id="191" depart="318.33">
        <route edges="D4C4 C4B4 B4A4 A4A3 A3A2 A2A1 A1A0"/>
    </vehicle>
    <vehicle id="192" depart="320.00">
        <route edges="E1E2 E2E3 E3E4 E4D4"/>
    </vehicle>
    <vehicle id="194" depart="323.33">
        <route edges="C3D3 D3D2 D2C2 C2B2 B2A2 A2A3 A3B3 B3B2"/>
    </vehicle>
    <vehicle id="196" depart="326.67">
        <route edges="C0D0 D0E0 E0E1 E1E2 E2E3 E3E4 E4D4 D4C4"/>
    </vehicle>
    <vehicle id="197" depart="328.33">
        <route edges="C2B2 B2B3 B3C3 C3C2 C2C1 C1C0 C0B0 B0A0 A0A1 A1B1"/>
    </vehicle>
    <vehicle id="198" depart="330.00">
        <route edges="A3B3 B3B2 B2A2 A2A3 A3A4 A4B4 B4C4 C4D4 D4E4 E4E3"/>
    </vehicle>
    <vehicle id="199" depart="331.67">
        <route edges="B0B1 B1B2 B2C2 C2D2 D2E2 E2E1"/>
    </vehicle>
    <vehicle id="201" depart="335.00">
        <route edges="A4B4 B4C4 C4D4"/>
    </vehicle>
    <vehicle id="203" depart="338.33">
        <route edges="B2C2 C2C1 C1B1 B1B2 B2B3 B3C3 C3D3 D3E3 E3E2 E2D2"/>
    </vehicle>
    <vehicle id="208" depart="346.67">
        <route edges="C0B0 B0B1 B1C1 C1C0"/>
    </vehicle>
    <vehicle id="209" depart="348.33">
        <route edges="B3B4 B4C4"/>
    </vehicle>
    <vehicle id="210" depart="350.00">
        <route edges="E3E2 E2D2 D2C2 C2C3 C3C4 C4D4"/>
    </vehicle>
    <vehicle id="212" depart="353.33">
        <route edges="B3B4 B4C4 C4C3 C3C2 C2C1 C1B1 B1A1 A1A2"/>
    </vehicle>
    <vehicle id="213" depart="355.00">
        <route edges="C1B1 B1A1 A1A2 A2A3 A3B3 B3B2"/>
    </vehicle>
    <vehicle id="215" depart="358.33">
        <route edges="B1A1 A1A2 A2B2 B2C2 C2D2 D2D1"/>
    </vehicle>
    <vehicle id="216" depart="360.00">
        <route edges="C1D1 D1D0 D0C0 C0B0 B0B1"/>
    </vehicle>
    <vehicle id="218" depart="363.33">
        <route edges="D2C2 C2C3 C3D3 D3D2 D2D1 D1C1 C1B1 B1A1 A1A2 A2B2"/>
    </vehicle>
    <vehicle id="220" depart="366.67">
        <route edges="C3B3 B3B4 B4C4 C4D4 D4E4 E4E3 E3D3"/>
    </vehicle>
    <vehicle id="221" depart="368.33">
        <route edges="E0D0"/>
    </vehicle>
    <vehicle id="225" depart="375.00">
        <route edges="D0D1 D1D2"/>
    </vehicle>
    <vehicle id="226" depart="376.67">
        <route edges="D1C1 C1C2 C2C3"/>
    </vehicle>
    <vehicle id="227" depart="378.33">
        <route edges="E0D0 D0C0 C0C1 C1C2 C2C3 C3C4 C4D4"/>
    </vehicle>
    <vehicle id="229" depart="381.67">
        <route edges="B2C2 C2C1 C1C0 C0B0 B0B1"/>
    </vehicle>
    <vehicle id="230" depart="383.33">
        <route edges="B2C2 C2C1 C1C0 C0B0 B0A0 A0A1"/>
    </vehicle>
    <vehicle id="231" depart="385.00">
        <route edges="C3B3 B3A3 A3A4"/>
    </vehicle>
    <vehicle id="232" depart="386.67">
        <route edges="B1B2 B2C2 C2C1 C1B1 B1A1 A1A2 A2A3 A3A4 A4B4 B4B3"/>
    </vehicle>
    <vehicle id="233" depart="388.33">
        <route edges="A2A3 A3B3 B3B2 B2B1 B1B0 B0A0 A0A1 A1B1 B1C1 C1D1"/>
    </vehicle>
    <vehicle id="234" depart="390.00">
        <route edges="D3E3 E3E2 E2D2"/>
    </vehicle>
    <vehicle id="235" depart="391.67">
        <route edges="C1B1 B1B2 B2B3 B3C3 C3C2 C2B2"/>
    </vehicle>
    <vehicle id="237" depart="395.00">
        <route edges="A0A1 A1A2 A2A3 A3A4 A4B4 B4C4 C4D4 D4D3 D3C3 C3C4"/>
    </vehicle>
    <vehicle id="238" depart="396.67">
        <route edges="D0C0 C0C1 C1C2 C2C3 C3C4 C4D4 D4E4 E4E3 E3D3 D3D4"/>
    </vehicle>
    <vehicle id="239" depart="398.33">
        <route edges="D3D4 D4E4 E4E3 E3D3 D3C3 C3B3 B3A3 A3A4 A4B4 B4B3"/>
    </vehicle>
    <vehicle id="240" depart="400.00">
        <route edges="A2A3 A3B3 B3C3 C3D3 D3D2 D2D1 D1D0"/>
    </vehicle>
    <vehicle id="242" depart="403.33">
        <route edges="D3D4 D4E4 E4E3 E3E2"/>
    </vehicle>
    <vehicle id="243" depart="405.00">
        <route edges="B3C3 C3D3 D3D2 D2C2 C2C3"/>
    </vehicle>
    <vehicle id="246" depart="410.00">
        <route edges="C3C4 C4D4 D4D3 D3D2"/>
    </vehicle>
    <vehicle id="248" depart="413.33">
        <route edges="C1B1 B1B2 B2B3 B3B4 B4C4 C4D4 D4E4 E4E3"/>
    </vehicle>
    <vehicle id="250" depart="416.67">
        <route edges="D1E1 E1E0 E0D0 D0C0 C0B0 B0A0 A0A1 A1A2 A2A3 A3A4 A4B4"/>
    </vehicle>
    <vehicle id="251" depart="418.33">
        <route edges="E3E2 E2E1 E1E0"/>
    </vehicle>
    <vehicle id="252" depart="420.00">
        <route edges="E2D2 D2D3 D3E3 E3E2 E2E1 E1E0 E0D0 D0C0 C0B0 B0B1"/>
    </vehicle>
    <vehicle id="253" depart="421.67">
        <route edges="D1C1 C1C2 C2D2 D2E2 E2E1 E1D1 D1D2"/>
    </vehicle>
    <vehicle id="254" depart="423.33">
        <route edges="E2D2 D2C2 C2B2 B2A2 A2A3 A3B3 B3B2 B2B1 B1B0"/>
    </vehicle>
    <vehicle id="256" depart="426.67">
        <route edges="B1B0 B0A0 A0A1 A1A2 A2A3 A3A4 A4B4 B4C4 C4D4 D4E4 E4E3 E3D3 D3D4"/>
    </vehicle>
    <vehicle id="257" depart="428.33">
        <route edges="B1B0 B0A0 A0A1 A1A2 A2A3 A3A4 A4B4 B4B3 B3A3"/>
    </vehicle>
    <vehicle id="258" depart="430.00">
        <route edges="B3B4 B4C4 C4D4 D4E4 E4E3 E3E2 E2D2 D2D3 D3E3"/>
    </vehicle>
    <vehicle id="259" depart="431.67">
        <route edges="C3C2 C2C1 C1B1 B1A1 A1A2"/>
    </vehicle>
    <vehicle id="260" depart="433.33">
        <route edges="C2B2 B2B3 B3C3 C3C2 C2C1 C1B1 B1B2 B2C2"/>
    </vehicle>
    <vehicle id="262" depart="436.67">
        <route edges="A0A1 A1B1 B1C1 C1C0 C0B0"/>
    </vehicle>
    <vehicle id="263" depart="438.33">
        <route edges="C0B0 B0B1 B1B2"/>
    </vehicle>
    <vehicle id="264" depart="440.00">
        <route edges="C1C2 C2D2 D2D1 D1C1 C1B1 B1A1 A1A2 A2A3 A3B3"/>
    </vehicle>
    <vehicle id="265" depart="441.67">
        <route edges="D2D1 D1C1 C1C2 C2C3 C3C4 C4D4"/>
    </vehicle>
    <vehicle id="266" depart="443.33">
        <route edges="D3C3 C3B3 B3A3 A3A4 A4B4 B4B3 B3B2 B2B1"/>
    </vehicle>
    <vehicle id="267" depart="445.00">
        <route edges="A2B2 B2B1 B1A1 A1A2 A2A3 A3A4 A4B4 B4B3 B3A3"/>
    </vehicle>
    <vehicle id="268" depart="446.67">
        <route edges="A4B4 B4C4 C4D4 D4D3 D3D2 D2C2 C2C3 C3D3"/>
    </vehicle>
    <vehicle id="270" depart="450.00">
        <route edges="D3E3 E3E2 E2E1 E1D1 D1D2"/>
    </vehicle>
    <vehicle id="271" depart="451.67">
        <route edges="C2C3 C3D3 D3D2 D2D1 D1D0 D0C0 C0B0 B0B1 B1C1"/>
    </vehicle>
    <vehicle id="272" depart="453.33">
        <route edges="D2C2 C2C3 C3C4 C4D4 D4E4 E4E3"/>
    </vehicle>
    <vehicle id="274" depart="456.67">
        <route edges="E3E2 E2E1 E1E0 E0D0 D0D1"/>
    </vehicle>
    <vehicle id="276" depart="460.00">
        <route edges="C1B1 B1B2 B2B3 B3B4 B4C4 C4D4 D4D3 D3C3 C3C4"/>
    </vehicle>
    <vehicle id="277" depart="461.67">
        <route edges="C2B2 B2B3 B3B4 B4C4"/>
    </vehicle>
    <vehicle id="280" depart="466.67">
        <route edges="C2C3 C3D3 D3D2 D2C2 C2B2 B2B3 B3B4 B4C4 C4C3"/>
    </vehicle>
    <vehicle id="281" depart="468.33">
        <route edges="A3A4 A4B4 B4C4 C4D4 D4D3"/>
    </vehicle>
    <vehicle id="282" depart="470.00">
        <route edges="C1B1 B1B2 B2B3 B3C3"/>
    </vehicle>
    <vehicle id="283" depart="471.67">
        <route edges="A2A3 A3A4"/>
    </vehicle>
    <vehicle id="284" depart="473.33">
        <route edges="D1D0 D0C0 C0B0 B0A0 A0A1 A1A2 A2A3 A3A4 A4B4"/>
    </vehicle>
    <vehicle id="285" depart="475.00">
        <route edges="D1C1 C1B1 B1A1 A1A2 A2A3"/>
    </vehicle>
    <vehicle id="287" depart="478.33">
        <route edges="B4C4 C4C3 C3C2 C2C1 C1C0 C0B0 B0A0 A0A1 A1B1"/>
    </vehicle>
    <vehicle id="288" depart="480.00">
        <route edges="C2D2"/>
    </vehicle>
    <vehicle id="290" depart="483.33">
        <route edges="E0D0 D0C0 C0B0 B0A0 A0A1 A1A2 A2A3 A3A4 A4B4 B4B3 B3A3"/>
    </vehicle>
    <vehicle id="292" depart="486.67">
        <route edges="D2C2 C2C3"/>
    </vehicle>
    <vehicle id="293" depart="488.33">
        <route edges="B1B2 B2C2 C2D2 D2E2 E2E1 E1E0 E0D0 D0D1"/>
    </vehicle>
    <vehicle id="294" depart="490.00">
        <route edges="D0C0 C0C1 C1C2 C2C3 C3C4 C4D4 D4E4"/>
    </vehicle>
    <vehicle id="297" depart="495.00">
        <route edges="B2B3"/>
    </vehicle>
    <vehicle id="298" depart="496.67">
        <route edges="B3B4 B4C4 C4C3 C3C2 C2C1 C1B1 B1A1"/>
    </vehicle>
    <vehicle id="299" depart="498.33">
        <route edges="A1B1 B1C1 C1C0 C0B0 B0B1 B1B2"/>
    </vehicle>
    <vehicle id="301" depart="501.67">
        <route edges="C1C2 C2D2 D2D1 D1D0 D0C0 C0B0 B0B1"/>
    </vehicle>
    <vehicle id="302" depart="503.33">
        <route edges="E4D4 D4C4 C4B4 B4A4 A4A3 A3A2 A2A1 A1A0 A0B0 B0C0 C0D0 D0E0 E0E1 E1E2 E2E3"/>
    </vehicle>
    <vehicle id="303" depart="505.00">
        <route edges="B3B2 B2A2 A2A3 A3B3 B3C3 C3D3 D3D2 D2C2"/>
    </vehicle>
    <vehicle id="305" depart="508.33">
        <route edges="A1B1 B1B0 B0A0 A0A1 A1A2 A2A3 A3A4 A4B4 B4C4 C4D4 D4D3 D3C3"/>
    </vehicle>
    <vehicle id="306" depart="510.00">
        <route edges="C1D1 D1E1 E1E0 E0D0 D0D1 D1D2 D2D3 D3D4 D4E4 E4E3 E3D3"/>
    </vehicle>
    <vehicle id="307" depart="511.67">
        <route edges="C2B2 B2B3 B3C3 C3C2 C2C1 C1C0 C0B0 B0A0"/>
    </vehicle>
    <vehicle id="313" depart="521.67">
        <route edges="C0B0 B0B1 B1B2 B2B3 B3C3 C3C2"/>
    </vehicle>
    <vehicle id="314" depart="523.33">
        <route edges="B2A2 A2A3 A3B3 B3C3 C3D3 D3D2 D2D1 D1D0 D0C0"/>
    </vehicle>
    <vehicle id="316" depart="526.67">
        <route edges="D3E3 E3E2 E2D2 D2D3 D3D4 D4E4 E4E3 E3D3 D3C3 C3B3"/>
    </vehicle>
    <vehicle id="318" depart="530.00">
        <route edges="C3C4 C4D4 D4D3 D3C3 C3B3 B3B4"/>
    </vehicle>
    <vehicle id="319" depart="531.67">
        <route edges="B2C2 C2C1 C1C0 C0B0 B0A0"/>
    </vehicle>
    <vehicle id="320" depart="533.33">
        <route edges="B3B2 B2A2 A2A3 A3A4 A4B4 B4C4 C4C3"/>
    </vehicle>
    <vehicle id="322" depart="536.67">
        <route edges="C1D1 D1D0 D0C0 C0B0 B0B1 B1B2 B2C2 C2C1 C1B1"/>
    </vehicle>
    <vehicle id="325" depart="541.67">
        <route edges="B2B3 B3C3 C3D3 D3E3 E3E2 E2E1 E1D1 D1D2"/>
    </vehicle>
    <vehicle id="326" depart="543.33">
        <route edges="D0C0 C0B0 B0B1 B1B2 B2B3 B3B4 B4C4 C4C3"/>
    </vehicle>
    <vehicle id="327" depart="545.00">
        <route edges="E1D1 D1D2 D2D3 D3E3 E3E2 E2D2 D2C2"/>
    </vehicle>
    <vehicle id="328" depart="546.67">
        <route edges="B1B2 B2B3 B3C3 C3D3 D3E3 E3E2 E2D2 D2D3"/>
    </vehicle>
    <vehicle id="329" depart="548.33">
        <route edges="C1C0 C0B0 B0B1 B1C1 C1D1"/>
    </vehicle>
    <vehicle id="330" depart="550.00">
        <route edges="D3D4 D4E4 E4E3 E3E2 E2E1"/>
    </vehicle>
    <vehicle id="332" depart="553.33">
        <route edges="E2D2 D2D3 D3E3 E3E2 E2E1 E1D1 D1D2 D2E2"/>
    </vehicle>
    <vehicle id="333" depart="555.00">
        <route edges="B1B0 B0A0 A0A1 A1A2 A2B2 B2C2 C2D2 D2E2 E2E1"/>
    </vehicle>
    <vehicle id="334" depart="556.67">
        <route edges="C0C1 C1D1 D1D0 D0C0 C0B0 B0B1 B1B2 B2B3 B3C3 C3C2"/>
    </vehicle>
    <vehicle id="336" depart="560.00">
        <route edges="A4B4 B4C4 C4D4 D4D3 D3D2 D2C2"/>
    </vehicle>
    <vehicle id="337" depart="561.67">
        <route edges="D4E4 E4E3 E3E2 E2E1 E1E0 E0D0 D0D1 D1E1"/>
    </vehicle>
    <vehicle id="339" depart="565.00">
        <route edges="E0D0 D0C0 C0B0 B0A0 A0A1 A1A2 A2A3 A3B3"/>
    </vehicle>
    <vehicle id="340" depart="566.67">
        <route edges="E4D4 D4C4 C4B4 B4A4 A4A3 A3A2 A2A1 A1A0 A0B0"/>
    </vehicle>
    <vehicle id="341" depart="568.33">
        <route edges="C2B2 B2B3 B3B4 B4C4 C4D4 D4D3"/>
    </vehicle>
    <vehicle id="345" depart="575.00">
        <route edges="D2D1 D1D0 D0C0 C0B0 B0B1 B1C1"/>
    </vehicle>
    <vehicle id="346" depart="576.67">
        <route edges="B0B1 B1B2 B2B3 B3C3 C3C2 C2B2"/>
    </vehicle>
    <vehicle id="348" depart="580.00">
        <route edges="A4B4 B4B3"/>
    </vehicle>
    <vehicle id="349" depart="581.67">
        <route edges="A0A1 A1A2 A2A3 A3B3"/>
    </vehicle>
    <vehicle id="352" depart="586.67">
        <route edges="B3B4 B4C4 C4C3 C3C2 C2B2 B2B3"/>
    </vehicle>
    <vehicle id="354" depart="590.00">
        <route edges="B3A3 A3A4 A4B4 B4C4 C4D4 D4D3 D3D2 D2C2 C2C3 C3D3"/>
    </vehicle>
    <vehicle id="355" depart="591.67">
        <route edges="E1E0 E0D0 D0C0 C0B0 B0A0 A0A1 A1A2 A2A3 A3A4 A4B4 B4B3 B3A3"/>
    </vehicle>
    <vehicle id="356" depart="593.33">
        <route edges="A3A2 A2A1 A1A0 A0B0 B0C0 C0D0 D0E0"/>
    </vehicle>
    <vehicle id="358" depart="596.67">
        <route edges="C0D0 D0E0 E0E1 E1E2 E2E3 E3E4 E4D4 D4C4"/>
    </vehicle>
    <vehicle id="360" depart="600.00">
        <route edges="D4E4 E4E3 E3E2 E2E1 E1E0 E0D0 D0C0 C0C1 C1D1 D1D0"/>
    </vehicle>
    <vehicle id="361" depart="601.67">
        <route edges="D2D3 D3E3 E3E2 E2E1 E1D1 D1C1 C1C2 C2D2 D2D1"/>
    </vehicle>
    <vehicle id="364" depart="606.67">
        <route edges="A2A3 A3A4 A4B4 B4C4 C4D4 D4D3 D3C3 C3C4"/>
    </vehicle>
    <vehicle id="365" depart="608.33">
        <route edges="C2C1 C1C0 C0B0 B0B1 B1C1 C1D1"/>
    </vehicle>
    <vehicle id="366" depart="610.00">
        <route edges="D2C2 C2C3 C3D3 D3D2 D2D1 D1D0 D0C0 C0B0"/>
    </vehicle>
    <vehicle id="369" depart="615.00">
        <route edges="C1D1 D1D0 D0C0 C0B0 B0A0 A0A1 A1A2 A2A3 A3B3 B3B2"/>
    </vehicle>
    <vehicle id="370" depart="616.67">
        <route edges="B2B3 B3C3 C3C2 C2C1 C1C0 C0B0 B0A0 A0A1 A1B1 B1B0"/>
    </vehicle>
    <vehicle id="373" depart="621.67">
        <route edges="C0C1 C1D1 D1D0 D0C0 C0B0 B0B1 B1B2 B2C2"/>
    </vehicle>
    <vehicle id="375" depart="625.00">
        <route edges="B3C3 C3C2 C2B2 B2B3 B3B4 B4C4 C4D4 D4E4 E4E3 E3D3"/>
    </vehicle>
    <vehicle id="376" depart="626.67">
        <route edges="C2B2 B2B3 B3C3 C3C2 C2C1 C1B1 B1A1"/>
    </vehicle>
    <vehicle id="378" depart="630.00">
        <route edges="D4D3 D3D2 D2D1 D1C1"/>
    </vehicle>
    <vehicle id="379" depart="631.67">
        <route edges="A0A1 A1B1 B1C1 C1D1 D1D0"/>
    </vehicle>
    <vehicle id="380" depart="633.33">