<?xml version="1.0" encoding="UTF-8"?>
<!-- generated on 2020-04-14 10:14:46.749605 by $Id$
  options: -n test.net.xml -o 600Vehicles.trips.xml -b 0 -e 1000 -p 1.6666666
-->
<routes xmlns:xsi="http://www.w3.org/2001/XMLSchema-instance" xsi:noNamespaceSchemaLocation="http://sumo.dlr.de/xsd/routes_file.xsd">
    <trip id="0" depart="0.00" from="B0A0" to="C2C1"/>
    <trip id="1" depart="1.67" from="C4B4" to="C2B2"/>
    <trip id="2" depart="3.33" from="B2C2" to="C1C2"/>
    <trip id="3" depart="5.00" from="B4A4" to="E0E1"/>
    <trip id="4" depart="6.67" from="C2D2" to="D1E1"/>
    <trip id="5" depart="8.33" from="D4D3" to="D2D3"/>
    <trip id="6" depart="10.00" from="B4B3" to="C4C3"/>
    <trip id="7" depart="11.67" from="A4A3" to="A0B0"/>
    <trip id="8" depart="13.33" from="E0D0" to="D3D4"/>
    <trip id="9" depart="15.00" from="E1D1" to="E2E3"/>
    <trip id="10" depart="16.67" from="C3B3" to="D2D1"/>
    <trip id="11" depart="18.33" from="C3C2" to="C4B4"/>
    <trip id="12" depart="20.00" from="E3E2" to="D4D3"/>
    <trip id="13" depart="21.67" from="A1B1" to="D4D3"/>
    <trip id="14" depart="23.33" from="A2B2" to="D0E0"/>
    <trip id="15" depart="25.00" from="D1C1" to="B1C1"/>
    <trip id="16" depart="26.67" from="E3E2" to="E1E2"/>
    <trip id="17" depart="28.33" from="B3B4" to="A4A3"/>
    <trip id="18" depart="30.00" from="C4B4" to="B2B3"/>
    <trip id="19" depart="31.67" from="C1D1" to="D1C1"/>
    <trip id="20" depart="33.33" from="D3D4" to="C3C4"/>
    <trip id="21" depart="35.00" from="D3D4" to="A3A4"/>
    <trip id="22" depart="36.67" from="B3B2" to="C0D0"/>
    <trip id="23" depart="38.33" from="E1E2" to="D2D3"/>
    <trip id="24" depart="40.00" from="B2B1" to="A1B1"/>
    <trip id="25" depart="41.67" from="B0A0" to="C2B2"/>
    <trip id="26" depart="43.33" from="A3A2" to="C4D4"/>
    <trip id="27" depart="45.00" from="E4E3" to="A0B0"/>
    <trip id="28" depart="46.67" from="B3B4" to="B4A4"/>
    <trip id="29" depart="48.33" from="C2C3" to="D4E4"/>
    <trip id="30" depart="50.00" from="A1B1" to="E1E0"/>
    <trip id="31" depart="51.67" from="D2D1" to="D2D3"/>
    <trip id="32" depart="53.33" from="E4E3" to="D1E1"/>
    <trip id="33" depart="55.00" from="B4C4" to="D2E2"/>
    <trip id="34" depart="56.67" from="C1B1" to="D0D1"/>
    <trip id="35" depart="58.33" from="A0A1" to="A2A1"/>
    <trip id="36" depart="60.00" from="D4E4" to="E1E0"/>
    <trip id="37" depart="61.67" from="A4A3" to="D2C2"/>
    <trip id="38" depart="63.33" from="A0B0" to="E3E4"/>
    <trip id="39" depart="65.00" from="D1E1" to="C4B4"/>
    <trip id="40" depart="66.67" from="B1A1" to="D3C3"/>
    <trip id="41" depart="68.33" from="E2E1" to="B0A0"/>
    <trip id="42" depart="70.00" from="B2A2" to="D3D4"/>
    <trip id="43" depart="71.67" from="D3C3" to="B1C1"/>
    <trip id="44" depart="73.33" from="B3C3" to="D2D1"/>
    <trip id="45" depart="75.00" from="C3B3" to="E1D1"/>
    <trip id="46" depart="76.67" from="C1D1" to="D1D2"/>
    <trip id="47" depart="78.33" from="D1E1" to="B1B2"/>
    <trip id="48" depart="80.00" from="D1D0" to="C0C1"/>
    <trip id="49" depart="81.67" from="A3A4" to="A0A1"/>
    <trip id="50" depart="83.33" from="B0A0" to="A2A1"/>
    <trip id="51" depart="85.00" from="D1D2" to="B4A4"/>
    <trip id="52" depart="86.67" from="A0B0" to="B0A0"/>
    <trip id="53" depart="88.33" from="A0B0" to="A4A3"/>
    <trip id="54" depart="90.00" from="D0E0" to="C3D3"/>
    <trip id="55" depart="91.67" from="A0A1" to="C1B1"/>
    <trip id="56" depart="93.33" from="A2B2" to="C1B1"/>
    <trip id="57" depart="95.00" from="C4C3" to="C0C1"/>
    <trip id="58" depart="96.67" from="D3E3" to="D1D2"/>
    <trip id="59" depart="98.33" from="B0B1" to="A3A4"/>
    <trip id="60" depart="100.00" from="D2D3" to="C3C2"/>
    <trip id="61" depart="101.67" from="C0C1" to="B1A1"/>
    <trip id="62" depart="103.33" from="E4E3" to="C2C1"/>
    <trip id="63" depart="105.00" from="E0D0" to="D4E4"/>
    <trip id="64" depart="106.67" from="B0A0" to="E4D4"/>
    <trip id="65" depart="108.33" from="B2A2" to="C4C3"/>
    <trip id="66" depart="110.00" from="E3E2" to="E0D0"/>
    <trip id="67" depart="111.67" from="B3C3" to="C1D1"/>
    <trip id="68" depart="113.33" from="C0B0" to="E4E3"/>
    <trip id="69" depart="115.00" from="C1C2" to="A3A4"/>
    <trip id="70" depart="116.67" from="D3D2" to="D4D3"/>
    <trip id="71" depart="118.33" from="B1C1" to="B1A1"/>
    <trip id="72" depart="120.00" from="B4B3" to="E2E3"/>
    <trip id="73" depart="121.67" from="B3C3" to="A1A2"/>
    <trip id="74" depart="123.33" from="C3C4" to="E0D0"/>
    <trip id="75" depart="125.00" from="D3C3" to="D3E3"/>
    <trip id="76" depart="126.67" from="C0B0" to="D0D1"/>
    <trip id="77" depart="128.33" from="D1E1" to="C1C0"/>
    <trip id="78" depart="130.00" from="D0D1" to="A4B4"/>
    <trip id="79" depart="131.67" from="A4A3" to="C3C2"/>
    <trip id="80" depart="133.33" from="B3B4" to="E3D3"/>
    <trip id="81" depart="135.00" from="D1D0" to="D4C4"/>
    <trip id="82" depart="136.67" from="C3C2" to="B2B3"/>
    <trip id="83" depart="138.33" from="A4B4" to="E1E2"/>
    <trip id="84" depart="140.00" from="C2C3" to="C1C0"/>
    <trip id="85" depart="141.67" from="C2C1" to="C3B3"/>
    <trip id="86" depart="143.33" from="B2B3" to="E0E1"/>
    <trip id="87" depart="145.00" from="B3A3" to="B3C3"/>
    <trip id="88" depart="146.67" from="B2B3" to="A1A0"/>
    <trip id="89" depart="148.33" from="E2D2" to="E1E2"/>
    <trip id="90" depart="150.00" from="B2A2" to="B3C3"/>
    <trip id="91" depart="151.67" from="C1C2" to="C2C3"/>
    <trip id="92" depart="153.33" from="E3E4" to="D2E2"/>
    <trip id="93" depart="155.00" from="E2E3" to="E1E0"/>
    <trip id="94" depart="156.67" from="C4C3" to="C0D0"/>
    <trip id="95" depart="158.33" from="D3C3" to="C2C1"/>
    <trip id="96" depart="160.00" from="B3C3" to="D3D2"/>
    <trip id="97" depart="161.67" from="E2E3" to="E4D4"/>
    <trip id="98" depart="163.33" from="D0D1" to="C3D3"/>
    <trip id="99" depart="165.00" from="D4D3" to="E1E2"/>
    <trip id="100" depart="166.67" from="B2C2" to="C4B4"/>
    <trip id="101" depart="168.33" from="A3B3" to="D4D3"/>
    <trip id="102" depart="170.00" from="A1A0" to="B3B2"/>
    <trip id="103" depart="171.67" from="A1A0" to="A0B0"/>
    <trip id="104" depart="173.33" from="B2B3" to="A0B0"/>
    <trip id="105" depart="175.00" from="E1D1" to="D1D2"/>
    <trip id="106" depart="176.67" from="C1B1" to="D1E1"/>
    <trip id="107" depart="178.33" from="D1D0" to="D4D3"/>
    <trip id="108" depart="180.00" from="D4C4" to="C2C1"/>
    <trip id="109" depart="181.67" from="C4C3" to="E2E1"/>
    <trip id="110" depart="183.33" from="C1C2" to="B3B2"/>
    <trip id="111" depart="185.00" from="C0C1" to="B0A0"/>
    <trip id="112" depart="186.67" from="E4E3" to="D3D4"/>
    <trip id="113" depart="188.33" from="B3C3" to="A3A4"/>
    <trip id="114" depart="190.00" from="A1A0" to="D4E4"/>
    <trip id="115" depart="191.67" from="C2B2" to="A4A3"/>
    <trip id="116" depart="193.33" from="B0C0" to="C3B3"/>
    <trip id="117" depart="195.00" from="B3B2" to="A4B4"/>
    <trip id="118" depart="196.67" from="C0B0" to="C2C1"/>
    <trip id="119" depart="198.33" from="E1E0" to="A4B4"/>
    <trip id="120" depart="200.00" from="E3D3" to="C2D2"/>
    <trip id="121" depart="201.67" from="C3C2" to="E3D3"/>
    <trip id="122" depart="203.33" from="A0A1" to="A1B1"/>
    <trip id="123" depart="205.00" from="A4B4" to="A3A2"/>
    <trip id="124" depart="206.67" from="A4B4" to="B2C2"/>
    <trip id="125" depart="208.33" from="A3A4" to="C0B0"/>
    <trip id="126" depart="210.00" from="B2A2" to="B1A1"/>
    <trip id="127" depart="211.67" from="A1A2" to="E1E2"/>
    <trip id="128" depart="213.33" from="D4C4" to="A2B2"/>
    <trip id="129" depart="215.00" from="E2E1" to="E0D0"/>
    <trip id="130" depart="216.67" from="E3D3" to="D1D0"/>
    <trip id="131" depart="218.33" from="B1C1" to="A1B1"/>
    <trip id="132" depart="220.00" from="B2C2" to="D4E4"/>
    <trip id="133" depart="221.67" from="C1B1" to="D0D1"/>
    <trip id="134" depart="223.33" from="D3D4" to="D2D1"/>
    <trip id="135" depart="225.00" from="C1B1" to="B0B1"/>
    <trip id="136" depart="226.67" from="B2A2" to="E1D1"/>
    <trip id="137" depart="228.33" from="C3C2" to="C3D3"/>
    <trip id="138" depart="230.00" from="C0B0" to="C0D0"/>
    <trip id="139" depart="231.67" from="D2E2" to="E1E0"/>
    <trip id="140" depart="233.33" from="E0D0" to="D0C0"/>
    <trip id="141" depart="235.00" from="D3D4" to="B2C2"/>
    <trip id="142" depart="236.67" from="A3A2" to="B0A0"/>
    <trip id="143" depart="238.33" from="B1C1" to="C1B1"/>
    <trip id="144" depart="240.00" from="B1B2" to="C3B3"/>
    <trip id="145" depart="241.67" from="A3A2" to="C0D0"/>
    <trip id="146" depart="243.33" from="D1D0" to="B1C1"/>
    <trip id="147" depart="245.00" from="B1B0" to="C0B0"/>
    <trip id="148" depart="246.67" from="B2B1" to="B2C2"/>
    <trip id="149" depart="248.33" from="B0C0" to="D3D2"/>
    <trip id="150" depart="250.00" from="D4E4" to="B3B4"/>
    <trip id="151" depart="251.67" from="A1B1" to="C4C3"/>
    <trip id="152" depart="253.33" from="B2A2" to="C2B2"/>
    <trip id="153" depart="255.00" from="D2D1" to="D2C2"/>
    <trip id="154" depart="256.67" from="E0D0" to="D4C4"/>
    <trip id="155" depart="258.33" from="A2A1" to="A2A1"/>
    <trip id="156" depart="260.00" from="B3C3" to="A1A2"/>
    <trip id="157" depart="261.67" from="A1B1" to="C3D3"/>
    <trip id="158" depart="263.33" from="E1E2" to="D0D1"/>
    <trip id="159" depart="265.00" from="A3A4" to="E3E4"/>
    <trip id="160" depart="266.67" from="E2E1" to="C3C2"/>
    <trip id="161" depart="268.33" from="A3B3" to="B4A4"/>
    <trip id="162" depart="270.00" from="D3D4" to="B4B3"/>
    <trip id="163" depart="271.67" from="A0B0" to="B2C2"/>
    <trip id="164" depart="273.33" from="C4D4" to="C1B1"/>
    <trip id="165" depart="275.00" from="C1B1" to="D1D2"/>
    <trip id="166" depart="276.67" from="D2D1" to="A1A0"/>
    <trip id="167" depart="278.33" from="A3A2" to="D3C3"/>
    <trip id="168" depart="280.00" from="B1A1" to="A2B2"/>
    <trip id="169" depart="281.67" from="D0C0" to="C2D2"/>
    <trip id="170" depart="283.33" from="A4B4" to="B2A2"/>
    <trip id="171" depart="285.00" from="D3D2" to="B1C1"/>
    <trip id="172" depart="286.67" from="B3B4" to="A3A4"/>
    <trip id="173" depart="288.33" from="A3B3" to="D4C4"/>
    <trip id="174" depart="290.00" from="C1B1" to="C1C2"/>
    <trip id="175" depart="291.67" from="B4B3" to="B2B1"/>
    <trip id="176" depart="293.33" from="C2C3" to="A2A3"/>
    <trip id="177" depart="295.00" from="A2A1" to="E1E0"/>
    <trip id="178" depart="296.67" from="A2B2" to="E2E1"/>
    <trip id="179" depart="298.33" from="B3C3" to="A1B1"/>
    <trip id="180" depart="300.00" from="A1A2" to="A2A3"/>
    <trip id="181" depart="301.67" from="C2B2" to="B4C4"/>
    <trip id="182" depart="303.33" from="C4B4" to="E1E0"/>
    <trip id="183" depart="305.00" from="C2B2" to="E1D1"/>
    <trip id="184" depart="306.67" from="D4E4" to="B2C2"/>
    <trip id="185" depart="308.33" from="C0C1" to="D4D3"/>
    <trip id="186" depart="310.00" from="C2C3" to="B0B1"/>
    <trip id="187" depart="311.67" from="B0B1" to="C0C1"/>
    <trip id="188" depart="313.33" from="A4B4" to="E1E2"/>
    <trip id="189" depart="315.00" from="D3D4" to="A0B0"/>
    <trip id="190" depart="316.67" from="B3C3" to="D2D3"/>
    <trip id="191" depart="318.33" from="D4C4" to="A1A0"/>
    <trip id="192" depart="320.00" from="E1E2" to="E4D4"/>
    <trip id="193" depart="321.67" from="B1C1" to="E3E4"/>
    <trip id="194" depart="323.33" from="C3D3" to="B3B2"/>
    <trip id="195" depart="325.00" from="B2B3" to="A4A3"/>
    <trip id="196" depart="326.67" from="C0D0" to="D4C4"/>
    <trip id="197" depart="328.33" from="C2B2" to="A1B1"/>
    <trip id="198" depart="330.00" from="A3B3" to="E4E3"/>
    <trip id="199" depart="331.67" from="B0B1" to="E2E1"/>
    <trip id="200" depart="333.33" from="C1D1" to="A2A1"/>
    <trip id="201" depart="335.00" from="A4B4" to="C4D4"/>
    <trip id="202" depart="336.67" from="B2C2" to="E3E4"/>
    <trip id="203" depart="338.33" from="B2C2" to="E2D2"/>
    <trip id="204" depart="340.00" from="C4C3" to="E0E1"/>
    <trip id="205" depart="341.67" from="B4A4" to="D1C1"/>
    <trip id="206" depart="343.33" from="D2C2" to="C4B4"/>
    <trip id="207" depart="345.00" from="D0C0" to="A3A2"/>
    <trip id="208" depart="346.67" from="C0B0" to="C1C0"/>
    <trip id="209" depart="348.33" from="B3B4" to="B4C4"/>
    <trip id="210" depart="350.00" from="E3E2" to="C4D4"/>
    <trip id="211" depart="351.67" from="D4C4" to="D3D2"/>
    <trip id="212" depart="353.33" from="B3B4" to="A1A2"/>
    <trip id="213" depart="355.00" from="C1B1" to="B3B2"/>
    <trip id="214" depart="356.67" from="A2A1" to="D4D3"/>
    <trip id="215" depart="358.33" from="B1A1" to="D2D1"/>
    <trip id="216" depart="360.00" from="C1D1" to="B0B1"/>
    <trip id="217" depart="361.67" from="D4C4" to="B0B1"/>
    <trip id="218" depart="363.33" from="D2C2" to="A2B2"/>
    <trip id="219" depart="365.00" from="E3E2" to="E3E4"/>
    <trip id="220" depart="366.67" from="C3B3" to="E3D3"/>
    <trip id="221" depart="368.33" from="E0D0" to="E0D0"/>
    <trip id="222" depart="370.00" from="C0D0" to="B2C2"/>
    <trip id="223" depart="371.67" from="A4A3" to="B2A2"/>
    <trip id="224" depart="373.33" from="C0C1" to="A0B0"/>
    <trip id="225" depart="375.00" from="D0D1" to="D1D2"/>
    <trip id="226" depart="376.67" from="D1C1" to="C2C3"/>
    <trip id="227" depart="378.33" from="E0D0" to="C4D4"/>
    <trip id="228" depart="380.00" from="E4D4" to="E3E2"/>
    <trip id="229" depart="381.67" from="B2C2" to="B0B1"/>
    <trip id="230" depart="383.33" from="B2C2" to="A0A1"/>
    <trip id="231" depart="385.00" from="C3B3" to="A3A4"/>
    <trip id="232" depart="386.67" from="B1B2" to="B4B3"/>
    <trip id="233" depart="388.33" from="A2A3" to="C1D1"/>
    <trip id="234" depart="390.00" from="D3E3" to="E2D2"/>
    <trip id="235" depart="391.67" from="C1B1" to="C2B2"/>
    <trip id="236" depart="393.33" from="E2E3" to="C4D4"/>
    <trip id="237" depart="395.00" from="A0A1" to="C3C4"/>
    <trip id="238" depart="396.67" from="D0C0" to="D3D4"/>
    <trip id="239" depart="398.33" from="D3D4" to="B4B3"/>
    <trip id="240" depart="400.00" from="A2A3" to="D1D0"/>
    <trip id="241" depart="401.67" from="D3C3" to="D0E0"/>
    <trip id="242" depart="403.33" from="D3D4" to="E3E2"/>
    <trip id="243" depart="405.00" from="B3C3" to="C2C3"/>
    <trip id="244" depart="406.67" from="D0E0" to="B1B0"/>
    <trip id="245" depart="408.33" from="B1C1" to="D4C4"/>
    <trip id="246" depart="410.00" from="C3C4" to="D3D2"/>
    <trip id="247" depart="411.67" from="A0A1" to="D0E0"/>
    <trip id="248" depart="413.33" from="C1B1" to="E4E3"/>
    <trip id="249" depart="415.00" from="B4A4" to="E3E2"/>
    <trip id="250" depart="416.67" from="D1E1" to="A4B4"/>
    <trip id="251" depart="418.33" from="E3E2" to="E1E0"/>
    <trip id="252" depart="420.00" from="E2D2" to="B0B1"/>
    <trip id="253" depart="421.67" from="D1C1" to="D1D2"/>
    <trip id="254" depart="423.33" from="E2D2" to="B1B0"/>
    <trip id="255" depart="425.00" from="E1D1" to="E1E2"/>
    <trip id="256" depart="426.67" from="B1B0" to="D3D4"/>
    <trip id="257" depart="428.33" from="B1B0" to="B3A3"/>
    <trip id="258" depart="430.00" from="B3B4" to="D3E3"/>
    <trip id="259" depart="431.67" from="C3C2" to="A1A2"/>
    <trip id="260" depart="433.33" from="C2B2" to="B2C2"/>
    <trip id="261" depart="435.00" from="B3B4" to="A3A2"/>
    <trip id="262" depart="436.67" from="A0A1" to="C0B0"/>
    <trip id="263" depart="438.33" from="C0B0" to="B1B2"/>
    <trip id="264" depart="440.00" from="C1C2" to="A3B3"/>
    <trip id="265" depart="441.67" from="D2D1" to="C4D4"/>
    <trip id="266" depart="443.33" from="D3C3" to="B2B1"/>
    <trip id="267" depart="445.00" from="A2B2" to="B3A3"/>
    <trip id="268" depart="446.67" from="A4B4" to="C3D3"/>
    <trip id="269" depart="448.33" from="E2D2" to="A4A3"/>
    <trip id="270" depart="450.00" from="D3E3" to="D1D2"/>
    <trip id="271" depart="451.67" from="C2C3" to="B1C1"/>
    <trip id="272" depart="453.33" from="D2C2" to="E4E3"/>
    <trip id="273" depart="455.00" from="D4C4" to="C0C1"/>
    <trip id="274" depart="456.67" from="E3E2" to="D0D1"/>
    <trip id="275" depart="458.33" from="D1E1" to="D0E0"/>
    <trip id="276" depart="460.00" from="C1B1" to="C3C4"/>
    <trip id="277" depart="461.67" from="C2B2" to="B4C4"/>
    <trip id="278" depart="463.33" from="C1C0" to="A4A3"/>
    <trip id="279" depart="465.00" from="A4A3" to="C1D1"/>
    <trip id="280" depart="466.67" from="C2C3" to="C4C3"/>
    <trip id="281" depart="468.33" from="A3A4" to="D4D3"/>
    <trip id="282" depart="470.00" from="C1B1" to="B3C3"/>
    <trip id="283" depart="471.67" from="A2A3" to="A3A4"/>
    <trip id="284" depart="473.33" from="D1D0" to="A4B4"/>
    <trip id="285" depart="475.00" from="D1C1" to="A2A3"/>
    <trip id="286" depart="476.67" from="E0E1" to="B2B3"/>
    <trip id="287" depart="478.33" from="B4C4" to="A1B1"/>
    <trip id="288" depart="480.00" from="C2D2" to="C2D2"/>
    <trip id="289" depart="481.67" from="A0B0" to="C0C1"/>
    <trip id="290" depart="483.33" from="E0D0" to="B3A3"/>
    <trip id="291" depart="485.00" from="D0D1" to="B0C0"/>
    <trip id="292" depart="486.67" from="D2C2" to="C2C3"/>
    <trip id="293" depart="488.33" from="B1B2" to="D0D1"/>
    <trip id="294" depart="490.00" from="D0C0" to="D4E4"/>
    <trip id="295" depart="491.67" from="B3C3" to="A1A0"/>
    <trip id="296" depart="493.33" from="B0C0" to="D1E1"/>
    <trip id="297" depart="495.00" from="B2B3" to="B2B3"/>
    <trip id="298" depart="496.67" from="B3B4" to="B1A1"/>
    <trip id="299" depart="498.33" from="A1B1" to="B1B2"/>
    <trip id="300" depart="500.00" from="A0B0" to="E0D0"/>
    <trip id="301" depart="501.67" from="C1C2" to="B0B1"/>
    <trip id="302" depart="503.33" from="E4D4" to="E2E3"/>
    <trip id="303" depart="505.00" from="B3B2" to="D2C2"/>
    <trip id="304" depart="506.67" from="A0B0" to="E4E3"/>
    <trip id="305" depart="508.33" from="A1B1" to="D3C3"/>
    <trip id="306" depart="510.00" from="C1D1" to="E3D3"/>
    <trip id="307" depart="511.67" from="C2B2" to="B0A0"/>
    <trip id="308" depart="513.33" from="B3B2" to="C0D0"/>
    <trip id="309" depart="515.00" from="A0A1" to="E4D4"/>
    <trip id="310" depart="516.67" from="E2E3" to="A3A4"/>
    <trip id="311" depart="518.33" from="C2B2" to="A2A1"/>
    <trip id="312" depart="520.00" from="D1D0" to="E4D4"/>
    <trip id="313" depart="521.67" from="C0B0" to="C3C2"/>
    <trip id="314" depart="523.33" from="B2A2" to="D0C0"/>
    <trip id="315" depart="525.00" from="D0C0" to="D4C4"/>
    <trip id="316" depart="526.67" from="D3E3" to="C3B3"/>
    <trip id="317" depart="528.33" from="C2C1" to="D0E0"/>
    <trip id="318" depart="530.00" from="C3C4" to="B3B4"/>
    <trip id="319" depart="531.67" from="B2C2" to="B0A0"/>
    <trip id="320" depart="533.33" from="B3B2" to="C4C3"/>
    <trip id="321" depart="535.00" from="B2B3" to="D4C4"/>
    <trip id="322" depart="536.67" from="C1D1" to="C1B1"/>
    <trip id="323" depart="538.33" from="B3B4" to="A4A3"/>
    <trip id="324" depart="540.00" from="D4C4" to="C1C2"/>
    <trip id="325" depart="541.67" from="B2B3" to="D1D2"/>
    <trip id="326" depart="543.33" from="D0C0" to="C4C3"/>
    <trip id="327" depart="545.00" from="E1D1" to="D2C2"/>
    <trip id="328" depart="546.67" from="B1B2" to="D2D3"/>
    <trip id="329" depart="548.33" from="C1C0" to="C1D1"/>
    <trip id="330" depart="550.00" from="D3D4" to="E2E1"/>
    <trip id="331" depart="551.67" from="E2E3" to="B0B1"/>
    <trip id="332" depart="553.33" from="E2D2" to="D2E2"/>
    <trip id="333" depart="555.00" from="B1B0" to="E2E1"/>
    <trip id="334" depart="556.67" from="C0C1" to="C3C2"/>
    <trip id="335" depart="558.33" from="A0B0" to="B1C1"/>
    <trip id="336" depart="560.00" from="A4B4" to="D2C2"/>
    <trip id="337" depart="561.67" from="D4E4" to="D1E1"/>
    <trip id="338" depart="563.33" from="A3A2" to="D3D2"/>
    <trip id="339" depart="565.00" from="E0D0" to="A3B3"/>
    <trip id="340" depart="566.67" from="E4D4" to="A0B0"/>
    <trip id="341" depart="568.33" from="C2B2" to="D4D3"/>
    <trip id="342" depart="570.00" from="C3C4" to="C0D0"/>
    <trip id="343" depart="571.67" from="A2A1" to="C2B2"/>
    <trip id="344" depart="573.33" from="B4B3" to="A0B0"/>
    <trip id="345" depart="575.00" from="D2D1" to="B1C1"/>
    <trip id="346" depart="576.67" from="B0B1" to="C2B2"/>
    <trip id="347" depart="578.33" from="A1A2" to="E4D4"/>
    <trip id="348" depart="580.00" from="A4B4" to="B4B3"/>
    <trip id="349" depart="581.67" from="A0A1" to="A3B3"/>
    <trip id="350" depart="583.33" from="D4C4" to="E1D1"/>
    <trip id="351" depart="585.00" from="C0D0" to="B4B3"/>
    <trip id="352" depart="586.67" from="B3B4" to="B2B3"/>
    <trip id="353" depart="588.33" from="B1B2" to="E0E1"/>
    <trip id="354" depart="590.00" from="B3A3" to="C3D3"/>
    <trip id="355" depart="591.67" from="E1E0" to="B3A3"/>
    <trip id="356" depart="593.33" from="A3A2" to="D0E0"/>
    <trip id="357" depart="595.00" from="D3C3" to="E0E1"/>
    <trip id="358" depart="596.67" from="C0D0" to="D4C4"/>
    <trip id="359" depart="598.33" from="A4B4" to="E2E3"/>
    <trip id="360" depart="600.00" from="D4E4" to="D1D0"/>
    <trip id="361" depart="601.67" from="D2D3" to="D2D1"/>
    <trip id="362" depart="603.33" from="B3C3" to="D0E0"/>
    <trip id="363" depart="605.00" from="E4D4" to="C4C3"/>
    <trip id="364" depart="606.67" from="A2A3" to="C3C4"/>
    <trip id="365" depart="608.33" from="C2C1" to="C1D1"/>
    <trip id="366" depart="610.00" from="D2C2" to="C0B0"/>
    <trip id="367" depart="611.67" from="A3B3" to="B0C0"/>
    <trip id="368" depart="613.33" from="E0D0" to="B4A4"/>
    <trip id="369" depart="615.00" from="C1D1" to="B3B2"/>
    <trip id="370" depart="616.67" from="B2B3" to="B1B0"/>
    <trip id="371" depart="618.33" from="A3A2" to="A3A4"/>
    <trip id="372" depart="620.00" from="D0E0" to="A1A2"/>
    <trip id="373" depart="621.67" from="C0C1" to="B2C2"/>
    <trip id="374" depart="623.33" from="A0A1" to="A2A1"/>
    <trip id="375" depart="625.00" from="B3C3" to="E3D3"/>
    <trip id="376" depart="626.67" from="C2B2" to="B1A1"/>
    <trip id="377" depart="628.33" from="E3E4" to="B1A1"/>
    <trip id="378" depart="630.00" from="D4D3" to="D1C1"/>
    <trip id="379" depart="631.67" from="A0A1" to="D1D0"/>
    <trip id="380" depart="633.33" from="E3E2" to="A0A1"/>
    <trip id="381" depart="635.00" from="D2D1" to="A1A2"/>
    <trip id="382" depart="636.67" from="C3D3" to="B4A4"/>
    <trip id="383" depart="638.33" from="B1A1" to="C1D1"/>
    <trip id="384" depart="640.00" from="A1A0" to="D2D1"/>
    <trip id="385" depart="641.67" from="A0B0" to="A2B2"/>
    <trip id="386" depart="643.33" from="E3D3" to="E2E3"/>
    <trip id="387" depart="645.00" from="C2C3" to="B1B0"/>
    <trip id="388" depart="646.67" from="B4A4" to="E0E1"/>
    <trip id="389" depart="648.33" from="E2E3" to="A3A4"/>
    <trip id="390" depart="650.00" from="A1A0" to="B1A1"/>
    <trip id="391" depart="651.67" from="C0C1" to="D2D3"/>
    <trip id="392" depart="653.33" from="B3C3" to="C2D2"/>
    <trip id="393" depart="655.00" from="B1B0" to="B2C2"/>
    <trip id="394" depart="656.67" from="D4C4" to="E3E4"/>
    <trip id="395" depart="658.33" from="D0D1" to="E0D0"/>
    <trip id="396" depart="660.00" from="E2D2" to="B1B0"/>
    <trip id="397" depart="661.67" from="B1A1" to="A2A3"/>
    <trip id="398" depart="663.33" from="B2B3" to="C4C3"/>
    <trip id="399" depart="665.00" from="E3E4" to="B4C4"/>
    <trip id="400" depart="666.67" from="E3E2" to="C4B4"/>
    <trip id="401" depart="668.33" from="B2C2" to="B1B2"/>
    <trip id="402" depart="670.00" from="B1C1" to="B0A0"/>
    <trip id="403" depart="671.67" from="D3D2" to="D1D0"/>
    <trip id="404" depart="673.33" from="B1A1" to="B0A0"/>
    <trip id="405" depart="675.00" from="D3E3" to="C3D3"/>
    <trip id="406" depart="676.67" from="D3D2" to="C2D2"/>
    <trip id="407" depart="678.33" from="B4A4" to="D2D3"/>
    <trip id="408" depart="680.00" from="C0C1" to="D1E1"/>
    <trip id="409" depart="681.67" from="B3B2" to="C1D1"/>
    <trip id="410" depart="683.33" from="B3A3" to="C3C2"/>
    <trip id="411" depart="685.00" from="E1E2" to="C2C3"/>
    <trip id="412" depart="686.67" from="C4C3" to="D3E3"/>
    <trip id="413" depart="688.33" from="C2D2" to="C4C3"/>
    <trip id="414" depart="690.00" from="D0E0" to="E1D1"/>
    <trip id="415" depart="691.67" from="B1A1" to="C0C1"/>
    <trip id="416" depart="693.33" from="A3B3" to="D3E3"/>
    <trip id="417" depart="695.00" from="D3C3" to="B4C4"/>
    <trip id="418" depart="696.67" from="B2A2" to="B0A0"/>
    <trip id="419" depart="698.33" from="D3C3" to="D1C1"/>
    <trip id="420" depart="700.00" from="D3E3" to="C3C2"/>
    <trip id="421" depart="701.67" from="A3B3" to="D3D4"/>
    <trip id="422" depart="703.33" from="B3B4" to="B1B2"/>
    <trip id="423" depart="705.00" from="B4B3" to="E4D4"/>
    <trip id="424" depart="706.67" from="D2D1" to="B3B2"/>
    <trip id="425" depart="708.33" from="A1B1" to="E0D0"/>
    <trip id="426" depart="710.00" from="A1A2" to="D2D3"/>
    <trip id="427" depart="711.67" from="C4B4" to="D1E1"/>
    <trip id="428" depart="713.33" from="C3C4" to="A1B1"/>
    <trip id="429" depart="715.00" from="D0E0" to="A3A4"/>
    <trip id="430" depart="716.67" from="C4C3" to="A2A3"/>
    <trip id="431" depart="718.33" from="A1A2" to="A3A2"/>
    <trip id="432" depart="720.00" from="D0E0" to="D3D2"/>
    <trip id="433" depart="721.67" from="B0A0" to="D2E2"/>
    <trip id="434" depart="723.33" from="B1B0" to="D3E3"/>
    <trip id="435" depart="725.00" from="D3C3" to="D1E1"/>
    <trip id="436" depart="726.67" from="B4C4" to="E3E4"/>
    <trip id="437" depart="728.33" from="D3C3" to="C0B0"/>
    <trip id="438" depart="730.00" from="A2A1" to="D0C0"/>
    <trip id="439" depart="731.67" from="B3B4" to="D3C3"/>
    <trip id="440" depart="733.33" from="A3A2" to="B4A4"/>
    <trip id="441" depart="735.00" from="D2D1" to="B4C4"/>
    <trip id="442" depart="736.67" from="D4C4" to="C3C4"/>
    <trip id="443" depart="738.33" from="D1D0" to="B0A0"/>
    <trip id="444" depart="740.00" from="B0C0" to="D3D4"/>
    <trip id="445" depart="741.67" from="E1D1" to="B1B0"/>
    <trip id="446" depart="743.33" from="C3C4" to="D4D3"/>
    <trip id="447" depart="745.00" from="D4D3" to="D3C3"/>
    <trip id="448" depart="746.67" from="A2A1" to="B0B1"/>
    <trip id="449" depart="748.33" from="C3C2" to="B4A4"/>
    <trip id="450" depart="750.00" from="B4C4" to="B0A0"/>
    <trip id="451" depart="751.67" from="D2D1" to="E1D1"/>
    <trip id="452" depart="753.33" from="E3E4" to="E2E1"/>
    <trip id="453" depart="755.00" from="A1A0" to="D0E0"/>
    <trip id="454" depart="756.67" from="E3D3" to="A4A3"/>
    <trip id="455" depart="758.33" from="D3D4" to="B1C1"/>
    <trip id="456" depart="760.00" from="A2A1" to="B0A0"/>
    <trip id="457" depart="761.67" from="A2A3" to="B4B3"/>
    <trip id="458" depart="763.33" from="E2E1" to="B0C0"/>
    <trip id="459" depart="765.00" from="B3B4" to="D0E0"/>
    <trip id="460" depart="766.67" from="D2D3" to="D2C2"/>
    <trip id="461" depart="768.33" from="B2A2" to="E2E3"/>
    <trip id="462" depart="770.00" from="B0A0" to="E1E2"/>
    <trip id="463" depart="771.67" from="B4B3" to="E2D2"/>
    <trip id="464" depart="773.33" from="A1B1" to="D3D2"/>
    <trip id="465" depart="775.00" from="A4A3" to="D1D0"/>
    <trip id="466" depart="776.67" from="A2B2" to="C3D3"/>
    <trip id="467" depart="778.33" from="C4D4" to="C3B3"/>
    <trip id="468" depart="780.00" from="A4A3" to="B3B4"/>
    <trip id="469" depart="781.67" from="C1D1" to="B1C1"/>
    <trip id="470" depart="783.33" from="C2C3" to="A4B4"/>
    <trip id="471" depart="785.00" from="D2C2" to="D3E3"/>
    <trip id="472" depart="786.67" from="B2C2" to="A2A1"/>
    <trip id="473" depart="788.33" from="E0E1" to="B2A2"/>
    <trip id="474" depart="790.00" from="C3C4" to="B3A3"/>
    <trip id="475" depart="791.67" from="D2C2" to="D2D3"/>
    <trip id="476" depart="793.33" from="B0A0" to="D4D3"/>
    <trip id="477" depart="795.00" from="B3B4" to="B1B2"/>
    <trip id="478" depart="796.67" from="D0C0" to="D0D1"/>
    <trip id="479" depart="798.33" from="C1C2" to="E4E3"/>
    <trip id="480" depart="800.00" from="B3B4" to="E2D2"/>
    <trip id="481" depart="801.67" from="C0B0" to="D3C3"/>
    <trip id="482" depart="803.33" from="C1C2" to="A0B0"/>
    <trip id="483" depart="805.00" from="A2A3" to="B1B0"/>
    <trip id="484" depart="806.67" from="B3B4" to="D2D1"/>
    <trip id="485" depart="808.33" from="D0D1" to="C3B3"/>
    <trip id="486" depart="810.00" from="A3B3" to="B1B0"/>
    <trip id="487" depart="811.67" from="D2D3" to="E3E2"/>
    <trip id="488" depart="813.33" from="C2B2" to="C0B0"/>
    <trip id="489" depart="815.00" from="C1B1" to="D1E1"/>
    <trip id="490" depart="816.67" from="C2C1" to="B4C4"/>
    <trip id="491" depart="818.33" from="A2A1" to="B3B4"/>
    <trip id="492" depart="820.00" from="B4B3" to="C3C2"/>
    <trip id="493" depart="821.67" from="D2E2" to="C1B1"/>
    <trip id="494" depart="823.33" from="A1A0" to="D2C2"/>
    <trip id="495" depart="825.00" from="A2A1" to="C2C1"/>
    <trip id="496" depart="826.67" from="C3C4" to="D0D1"/>
    <trip id="497" depart="828.33" from="E1E0" to="E2D2"/>
    <trip id="498" depart="830.00" from="E4D4" to="B4A4"/>
    <trip id="499" depart="831.67" from="D3E3" to="E2E1"/>
    <trip id="500" depart="833.33" from="B2A2" to="B0C0"/>
    <trip id="501" depart="835.00" from="C4D4" to="B1B0"/>
    <trip id="502" depart="836.67" from="C2B2" to="D3D4"/>
    <trip id="503" depart="838.33" from="D3D4" to="D3D2"/>
    <trip id="504" depart="840.00" from="E3D3" to="C0B0"/>
    <trip id="505" depart="841.67" from="A1B1" to="B4A4"/>