<?xml version="1.0" encoding="UTF-8"?>

<routes xmlns:xsi="http://www.w3.org/2001/XMLSchema-instance" xsi:noNamespaceSchemaLocation="http://sumo.dlr.de/xsd/routes_file.xsd">
   
    <vType id="type0" accel="0.8" decel="4.5" sigma="0.5" length="5" maxSpeed="5" color="green"/>
   
    <route id="route_0" edges="-gneE23" color="blue"/>
    <route id="route_1" edges="-gneE23 gneE26 gneE28" color="blue"/>
    <route id="route_2" edges="-gneE27 -gneE26 gneE24" color="blue"/>
    <route id="route_3" edges="-gneE25 gneE26 gneE28" color="blue"/>
    <route id="route_4" edges="-gneE30 -gneE26 gneE23" color="blue"/>
    <route id="route_5" edges="-gneE28 -gneE26 gneE25" color="blue"/>
    <route id="route_6" edges="-gneE24 gneE26 gneE30" color="blue"/>


    <!-- <vehicle id="vehicle_0" type="type0" depart="0.00" route="route_0"/> -->

    <vehicle id="vehicle_6" type="type0" depart="0.00" route="route_1"/>
    <vehicle id="vehicle_9" type="type0" depart="0.00" route="route_1"/>

    <vehicle id="vehicle_3" type="type0" depart="0.00" route="route_2"/>
    <vehicle id="vehicle_4" type="type0" depart="0.00" route="route_2"/>
    <vehicle id="vehicle_5" type="type0" depart="0.00" route="route_2"/>
    <vehicle id="vehicle_2" type="type0" depart="40.00" route="route_2"/>

    <vehicle id="vehicle_1" type="type0" depart="10.00" route="route_3"/>
    
    <vehicle id="vehicle_7" type="type0" depart="50.00" route="route_4"/>

    <vehicle id="vehicle_8" type="type0" depart="30.00" route="route_5"/>
    
    <vehicle id="vehicle_10" type="type0" depart="0.00" route="route_6"/>
    <vehicle id="vehicle_12" type="type0" depart="0.00" route="route_6"/>
    <vehicle id="vehicle_13" type="type0" depart="0.00" route="route_6"/>
    <vehicle id="vehicle_11" type="type0" depart="20.00" route="route_6"/>
    
    
</routes>
