<?xml version="1.0" encoding="UTF-8"?>

<!-- generated on Wed 18 Sep 20:03:18 2019 by Eclipse SUMO netedit Version 1.2.0
<configuration xmlns:xsi="http://www.w3.org/2001/XMLSchema-instance" xsi:noNamespaceSchemaLocation="http://sumo.dlr.de/xsd/netconvertConfiguration.xsd">

    <output>
        <output-file value="/Users/jamie/Documents/University/Third%20Year/Project/SUMO/Tutorials/Driving%20in%20circles/circles.net.xml"/>
    </output>

    <processing>
        <offset.disable-normalization value="true"/>
    </processing>

    <junctions>
        <no-turnarounds value="true"/>
    </junctions>

</configuration>
-->

<net version="1.1" junctionCornerDetail="5" limitTurnSpeed="5.50" xmlns:xsi="http://www.w3.org/2001/XMLSchema-instance" xsi:noNamespaceSchemaLocation="http://sumo.dlr.de/xsd/net_file.xsd">

    <location netOffset="0.00,0.00" convBoundary="-276.24,-13.87,-79.18,128.74" origBoundary="10000000000.00,10000000000.00,-10000000000.00,-10000000000.00" projParameter="!"/>

    <edge id=":J1_0" function="internal">
        <lane id=":J1_0_0" index="0" speed="13.89" length="0.91" shape="-217.85,128.85 -218.12,128.86 -218.31,128.83 -218.48,128.77 -218.72,128.64"/>
    </edge>
    <edge id=":J10_0" function="internal">
        <lane id=":J10_0_0" index="0" speed="13.89" length="0.66" shape="-148.73,125.64 -148.90,125.73 -149.03,125.77 -149.16,125.79 -149.36,125.80"/>
    </edge>
    <edge id=":J2_0" function="internal">
        <lane id=":J2_0_0" index="0" speed="13.89" length="3.47" shape="-241.96,115.36 -242.81,114.79 -243.30,114.29 -243.73,113.71 -244.41,112.94"/>
    </edge>
    <edge id=":J3_0" function="internal">
        <lane id=":J3_0_0" index="0" speed="4.03" length="1.64" shape="-277.39,79.09 -277.65,78.75 -277.80,78.39 -277.85,77.99 -277.80,77.57"/>
    </edge>
    <edge id=":J4_0" function="internal">
        <lane id=":J4_0_0" index="0" speed="4.42" length="1.03" shape="-265.80,30.50 -265.71,30.21 -265.63,30.01 -265.49,29.85 -265.26,29.65"/>
    </edge>
    <edge id=":J5_0" function="internal">
        <lane id=":J5_0_0" index="0" speed="4.24" length="1.25" shape="-210.34,-15.11 -210.04,-15.34 -209.81,-15.45 -209.56,-15.49 -209.19,-15.47"/>
    </edge>
    <edge id=":J6_0" function="internal">
        <lane id=":J6_0_0" index="0" speed="4.03" length="1.63" shape="-103.04,-6.70 -102.63,-6.62 -102.28,-6.45 -101.98,-6.18 -101.75,-5.83"/>
    </edge>
    <edge id=":J7_0" function="internal">
        <lane id=":J7_0_0" index="0" speed="13.89" length="0.85" shape="-77.75,41.24 -77.64,41.47 -77.58,41.63 -77.57,41.81 -77.58,42.06"/>
    </edge>
    <edge id=":J8_0" function="internal">
        <lane id=":J8_0_0" index="0" speed="4.36" length="1.09" shape="-79.42,76.67 -79.45,76.99 -79.50,77.21 -79.62,77.40 -79.83,77.65"/>
    </edge>
    <edge id=":J9_0" function="internal">
        <lane id=":J9_0_0" index="0" speed="13.89" length="0.62" shape="-101.98,102.57 -102.10,102.71 -102.20,102.79 -102.30,102.86 -102.47,102.94"/>
    </edge>

    <edge id="edge1" from="J1" to="J2" priority="-1">
        <lane id="edge1_0" index="0" speed="13.89" length="26.77" shape="-218.72,128.64 -241.96,115.36"/>
    </edge>
    <edge id="edge2" from="J10" to="J1" priority="-1" spreadType="center">
        <lane id="edge2_0" index="0" speed="13.89" length="68.56" shape="-149.36,125.80 -217.85,128.85"/>
    </edge>
    <edge id="edge3" from="J2" to="J3" priority="-1">
        <lane id="edge3_0" index="0" speed="13.89" length="47.26" shape="-244.41,112.94 -277.39,79.09"/>
    </edge>
    <edge id="gneE16" from="J3" to="J4" priority="-1">
        <lane id="gneE16_0" index="0" speed="13.89" length="48.58" shape="-277.80,77.57 -265.80,30.50"/>
    </edge>
    <edge id="gneE17" from="J4" to="J5" priority="-1">
        <lane id="gneE17_0" index="0" speed="13.89" length="70.85" shape="-265.26,29.65 -210.34,-15.11"/>
    </edge>
    <edge id="gneE18" from="J5" to="J6" priority="-1">
        <lane id="gneE18_0" index="0" speed="13.89" length="106.51" shape="-209.19,-15.47 -103.04,-6.70"/>
    </edge>
    <edge id="gneE19" from="J6" to="J7" priority="-1">
        <lane id="gneE19_0" index="0" speed="13.89" length="52.84" shape="-101.75,-5.83 -77.75,41.24"/>
    </edge>
    <edge id="gneE20" from="J7" to="J8" priority="-1">
        <lane id="gneE20_0" index="0" speed="13.89" length="34.66" shape="-77.58,42.06 -79.42,76.67"/>
    </edge>
    <edge id="gneE21" from="J8" to="J9" priority="-1">
        <lane id="gneE21_0" index="0" speed="13.89" length="33.34" shape="-79.83,77.65 -101.98,102.57"/>
    </edge>
    <edge id="gneE22" from="J9" to="J10" priority="-1">
        <lane id="gneE22_0" index="0" speed="13.89" length="51.53" shape="-102.47,102.94 -148.73,125.64"/>
    </edge>

    <tlLogic id="J1" type="static" programID="0" offset="0">
        <phase duration="82" state="G"/>
        <phase duration="3"  state="y"/>
        <phase duration="5"  state="r"/>
    </tlLogic>

    <junction id="J1" type="traffic_light_right_on_red" x="-215.32" y="128.74" incLanes="edge2_0" intLanes=":J1_0_0" shape="-217.78,130.45 -217.92,127.25 -219.51,130.03 -218.92,130.34 -218.69,130.42 -218.45,130.45 -218.17,130.46">
        <request index="0" response="0" foes="0" cont="0"/>
    </junction>
    <junction id="J10" type="priority" x="-153.02" y="125.97" incLanes="gneE22_0" intLanes=":J10_0_0" shape="-148.02,127.08 -149.43,124.21 -149.29,127.40 -148.80,127.37 -148.63,127.34 -148.46,127.28 -148.27,127.20">
        <request index="0" response="0" foes="0" cont="0"/>
    </junction>
    <junction id="J2" type="priority" x="-241.17" y="113.97" incLanes="edge1_0" intLanes=":J2_0_0" shape="-242.76,116.75 -241.17,113.97 -242.06,113.32 -242.31,113.02 -242.54,112.69 -242.83,112.30 -243.26,111.82 -245.55,114.05 -244.60,115.15 -244.28,115.56 -243.93,115.93 -243.46,116.31">
        <request index="0" response="0" foes="0" cont="0"/>
    </junction>
    <junction id="J3" type="priority" x="-276.24" y="77.97" incLanes="edge3_0" intLanes=":J3_0_0" shape="-278.54,80.20 -276.24,77.97 -279.35,77.18 -279.45,78.29 -279.36,78.80 -279.18,79.30 -278.91,79.76">
        <request index="0" response="0" foes="0" cont="0"/>
    </junction>
    <junction id="J4" type="priority" x="-264.25" y="30.89" incLanes="gneE16_0" intLanes=":J4_0_0" shape="-264.25,30.89 -266.27,28.41 -266.84,28.92 -267.00,29.13 -267.13,29.37 -267.23,29.69 -267.35,30.10">
        <request index="0" response="0" foes="0" cont="0"/>
    </junction>
    <junction id="J5" type="priority" x="-209.32" y="-13.87" incLanes="gneE17_0" intLanes=":J5_0_0" shape="-209.32,-13.87 -209.06,-17.06 -209.98,-17.09 -210.30,-17.03 -210.61,-16.90 -210.94,-16.68 -211.35,-16.35">
        <request index="0" response="0" foes="0" cont="0"/>
    </junction>
    <junction id="J6" type="priority" x="-103.17" y="-5.10" incLanes="gneE18_0" intLanes=":J6_0_0" shape="-103.17,-5.10 -100.32,-6.56 -100.97,-7.46 -101.38,-7.79 -101.83,-8.04 -102.35,-8.20 -102.91,-8.29">
        <request index="0" response="0" foes="0" cont="0"/>
    </junction>
    <junction id="J7" type="priority" x="-79.18" y="41.97" incLanes="gneE19_0" intLanes=":J7_0_0" shape="-76.32,40.52 -79.18,41.97 -75.98,42.14 -75.97,41.52 -75.99,41.30 -76.06,41.08 -76.17,40.84">
        <request index="0" response="0" foes="0" cont="0"/>
    </junction>
    <junction id="J8" type="priority" x="-81.02" y="76.58" incLanes="gneE20_0" intLanes=":J8_0_0" shape="-77.83,76.76 -81.02,76.58 -78.63,78.71 -78.12,78.09 -77.99,77.83 -77.90,77.56 -77.86,77.21">
        <request index="0" response="0" foes="0" cont="0"/>
    </junction>
    <junction id="J9" type="priority" x="-103.17" y="101.51" incLanes="gneE21_0" intLanes=":J9_0_0" shape="-100.78,103.63 -103.17,101.51 -101.76,104.38 -101.36,104.17 -101.22,104.08 -101.10,103.97 -100.96,103.83">
        <request index="0" response="0" foes="0" cont="0"/>
    </junction>

    <connection from="edge1" to="edge3" fromLane="0" toLane="0" via=":J2_0_0" dir="s" state="M"/>
    <connection from="edge2" to="edge1" fromLane="0" toLane="0" via=":J1_0_0" tl="J1" linkIndex="0" dir="s" state="O"/>
    <connection from="edge3" to="gneE16" fromLane="0" toLane="0" via=":J3_0_0" dir="l" state="M"/>
    <connection from="gneE16" to="gneE17" fromLane="0" toLane="0" via=":J4_0_0" dir="s" state="M"/>
    <connection from="gneE17" to="gneE18" fromLane="0" toLane="0" via=":J5_0_0" dir="s" state="M"/>
    <connection from="gneE18" to="gneE19" fromLane="0" toLane="0" via=":J6_0_0" dir="l" state="M"/>
    <connection from="gneE19" to="gneE20" fromLane="0" toLane="0" via=":J7_0_0" dir="s" state="M"/>
    <connection from="gneE20" to="gneE21" fromLane="0" toLane="0" via=":J8_0_0" dir="s" state="M"/>
    <connection from="gneE21" to="gneE22" fromLane="0" toLane="0" via=":J9_0_0" dir="s" state="M"/>
    <connection from="gneE22" to="edge2" fromLane="0" toLane="0" via=":J10_0_0" dir="s" state="M"/>

    <connection from=":J1_0" to="edge1" fromLane="0" toLane="0" dir="s" state="M"/>
    <connection from=":J10_0" to="edge2" fromLane="0" toLane="0" dir="s" state="M"/>
    <connection from=":J2_0" to="edge3" fromLane="0" toLane="0" dir="s" state="M"/>
    <connection from=":J3_0" to="gneE16" fromLane="0" toLane="0" dir="l" state="M"/>
    <connection from=":J4_0" to="gneE17" fromLane="0" toLane="0" dir="s" state="M"/>
    <connection from=":J5_0" to="gneE18" fromLane="0" toLane="0" dir="s" state="M"/>
    <connection from=":J6_0" to="gneE19" fromLane="0" toLane="0" dir="l" state="M"/>
    <connection from=":J7_0" to="gneE20" fromLane="0" toLane="0" dir="s" state="M"/>
    <connection from=":J8_0" to="gneE21" fromLane="0" toLane="0" dir="s" state="M"/>
    <connection from=":J9_0" to="gneE22" fromLane="0" toLane="0" dir="s" state="M"/>

</net>
