<?xml version="1.0" encoding="UTF-8"?>

<routes xmlns:xsi="http://www.w3.org/2001/XMLSchema-instance" xsi:noNamespaceSchemaLocation="http://sumo.dlr.de/xsd/routes_file.xsd">
    <route id="route_0" edges="-gneE0" color="orange"/>
    <route id="route_1" edges="gneE0" color="orange"/>

    <vType id="type1" accel="0.8" decel="4.5" sigma="0.5" maxSpeed="5" vClass="motorcycle" guiShape="evehicle">
        <param key="lcSublane" value="200000"/>
        <param key="lcPushy" value="1"/>
    </vType>
    


    
    <vType id="type2" accel="1.8" decel="4.5" sigma="0.5" maxSpeed="20" vClass="motorcycle" guiShape="evehicle"/>


    <vehicle id="vehicle_0" type="type1" depart="0.00" route="route_0" />
    <vehicle id="vehicle_1" type="type1" depart="0.00" route="route_1" />
    <vehicle id="vehicle_2" type="type2" depart="0.01" route="route_0" />
</routes>
