<?xml version="1.0" encoding="UTF-8"?>
<!-- generated on 2020-01-30 19:54:06.553292 by $Id$
  options: -n net.net.xml -o trips.trips.xml -e 400 -p 2
-->
<routes xmlns:xsi="http://www.w3.org/2001/XMLSchema-instance" xsi:noNamespaceSchemaLocation="http://sumo.dlr.de/xsd/routes_file.xsd">
    <trip id="0" depart="0.00" from="B1B0" to="E0E1"/>
    <trip id="1" depart="2.00" from="E4E3" to="B0C0"/>
    <trip id="2" depart="4.00" from="B0A0" to="B2A2"/>
    <trip id="3" depart="6.00" from="E3E4" to="B0A0"/>
    <trip id="4" depart="8.00" from="A1A2" to="B4C4"/>
    <trip id="5" depart="10.00" from="B1C1" to="A2A1"/>
    <trip id="6" depart="12.00" from="A4A3" to="B1B0"/>
    <trip id="7" depart="14.00" from="C4D4" to="D1C1"/>
    <trip id="8" depart="16.00" from="D2D1" to="D0D1"/>
    <trip id="9" depart="18.00" from="B3B2" to="C3C2"/>
    <trip id="10" depart="20.00" from="B1B2" to="B4A4"/>
    <trip id="11" depart="22.00" from="B0A0" to="B2B1"/>
    <trip id="12" depart="24.00" from="E2E1" to="B2B1"/>
    <trip id="13" depart="26.00" from="C2D2" to="D3C3"/>
    <trip id="14" depart="28.00" from="B1B0" to="E1E0"/>
    <trip id="15" depart="30.00" from="A3A2" to="E3E2"/>
    <trip id="16" depart="32.00" from="C1C0" to="D3C3"/>
    <trip id="17" depart="34.00" from="B1B2" to="C1C0"/>
    <trip id="18" depart="36.00" from="E3D3" to="A2B2"/>
    <trip id="19" depart="38.00" from="A1B1" to="C4B4"/>
    <trip id="20" depart="40.00" from="C2D2" to="E3D3"/>
    <trip id="21" depart="42.00" from="A3B3" to="D0C0"/>
    <trip id="22" depart="44.00" from="E2E1" to="A2A1"/>
    <trip id="23" depart="46.00" from="B0A0" to="D1C1"/>
    <trip id="24" depart="48.00" from="B1C1" to="E2E1"/>
    <trip id="25" depart="50.00" from="B3B4" to="B2A2"/>
    <trip id="26" depart="52.00" from="B3A3" to="A0B0"/>
    <trip id="27" depart="54.00" from="E2E1" to="C0D0"/>
    <trip id="28" depart="56.00" from="B3B2" to="B0B1"/>
    <trip id="29" depart="58.00" from="B1B2" to="C3C2"/>
    <trip id="30" depart="60.00" from="C0D0" to="E2E3"/>
    <trip id="31" depart="62.00" from="A0A1" to="C1B1"/>
    <trip id="32" depart="64.00" from="B4C4" to="C1B1"/>
    <trip id="33" depart="66.00" from="D1D0" to="D2D1"/>
    <trip id="34" depart="68.00" from="C0C1" to="A4A3"/>
    <trip id="35" depart="70.00" from="B4B3" to="C1B1"/>
    <trip id="36" depart="72.00" from="C2D2" to="A2A3"/>
    <trip id="37" depart="74.00" from="E2E1" to="C4C3"/>
    <trip id="38" depart="76.00" from="D1C1" to="C3D3"/>
    <trip id="39" depart="78.00" from="C2D2" to="D0C0"/>
    <trip id="40" depart="80.00" from="B0B1" to="E0D0"/>
    <trip id="41" depart="82.00" from="A0B0" to="A0B0"/>
    <trip id="42" depart="84.00" from="D3D2" to="B4C4"/>
    <trip id="43" depart="86.00" from="C1C0" to="B2B1"/>
    <trip id="44" depart="88.00" from="D3D4" to="D4C4"/>
    <trip id="45" depart="90.00" from="C0D0" to="E0E1"/>
    <trip id="46" depart="92.00" from="B3C3" to="D2E2"/>
    <trip id="47" depart="94.00" from="D2D3" to="E1D1"/>
    <trip id="48" depart="96.00" from="D3D2" to="B4C4"/>
    <trip id="49" depart="98.00" from="C1B1" to="E0E1"/>
    <trip id="50" depart="100.00" from="E4D4" to="D0C0"/>
    <trip id="51" depart="102.00" from="A3B3" to="C3B3"/>
    <trip id="52" depart="104.00" from="E1E2" to="D3D4"/>
    <trip id="53" depart="106.00" from="E0D0" to="B4A4"/>
    <trip id="54" depart="108.00" from="D2D3" to="E0E1"/>
    <trip id="55" depart="110.00" from="B0C0" to="D2C2"/>
    <trip id="56" depart="112.00" from="A3A4" to="D1D0"/>
    <trip id="57" depart="114.00" from="C3D3" to="E2E3"/>
    <trip id="58" depart="116.00" from="B3A3" to="D0E0"/>
    <trip id="59" depart="118.00" from="A4A3" to="E1D1"/>
    <trip id="60" depart="120.00" from="D1C1" to="C2D2"/>
    <trip id="61" depart="122.00" from="E0E1" to="C3C2"/>
    <trip id="62" depart="124.00" from="B1B2" to="A4B4"/>
    <trip id="63" depart="126.00" from="D2D1" to="E3D3"/>
    <trip id="64" depart="128.00" from="B1C1" to="B3B4"/>
    <trip id="65" depart="130.00" from="B0A0" to="A2A1"/>
    <trip id="66" depart="132.00" from="E1E2" to="A4A3"/>
    <trip id="67" depart="134.00" from="A0A1" to="A1B1"/>
    <trip id="68" depart="136.00" from="E0E1" to="E3E2"/>
    <trip id="69" depart="138.00" from="D2C2" to="A1B1"/>
    <trip id="70" depart="140.00" from="B1A1" to="B3B2"/>
    <trip id="71" depart="142.00" from="D3C3" to="C4D4"/>
    <trip id="72" depart="144.00" from="B3A3" to="A1A2"/>
    <trip id="73" depart="146.00" from="E3E2" to="C1C0"/>
    <trip id="74" depart="148.00" from="C4B4" to="D2C2"/>
    <trip id="75" depart="150.00" from="E0D0" to="C1C2"/>
    <trip id="76" depart="152.00" from="A1A2" to="D2D1"/>
    <trip id="77" depart="154.00" from="C3C4" to="C1C0"/>
    <trip id="78" depart="156.00" from="E3E4" to="E2E3"/>
    <trip id="79" depart="158.00" from="D0E0" to="C3C4"/>
    <trip id="80" depart="160.00" from="B4B3" to="C3C2"/>
    <trip id="81" depart="162.00" from="A1A0" to="B2A2"/>
    <trip id="82" depart="164.00" from="C4D4" to="B2A2"/>
    <trip id="83" depart="166.00" from="A1A0" to="C1C2"/>
    <trip id="84" depart="168.00" from="D4D3" to="B0B1"/>
    <trip id="85" depart="170.00" from="D3E3" to="D2D3"/>
    <trip id="86" depart="172.00" from="E1E2" to="E0E1"/>
    <trip id="87" depart="174.00" from="D4C4" to="C2D2"/>
    <trip id="88" depart="176.00" from="C1D1" to="C4B4"/>
    <trip id="89" depart="178.00" from="A1A0" to="B1C1"/>
    <trip id="90" depart="180.00" from="E2E1" to="D2D1"/>
    <trip id="91" depart="182.00" from="D2D3" to="C2C3"/>
    <trip id="92" depart="184.00" from="D1E1" to="C2C3"/>
    <trip id="93" depart="186.00" from="D1E1" to="C4B4"/>
    <trip id="94" depart="188.00" from="B3B4" to="C3C4"/>
    <trip id="95" depart="190.00" from="C2C3" to="D3C3"/>
    <trip id="96" depart="192.00" from="E1E2" to="D1E1"/>
    <trip id="97" depart="194.00" from="A2A1" to="B3A3"/>
    <trip id="98" depart="196.00" from="B0A0" to="B3B2"/>
    <trip id="99" depart="198.00" from="E2E1" to="D1D0"/>
    <trip id="100" depart="200.00" from="C1D1" to="A4A3"/>
    <trip id="101" depart="202.00" from="D3E3" to="A3B3"/>
    <trip id="102" depart="204.00" from="B4B3" to="A3A2"/>
    <trip id="103" depart="206.00" from="C0D0" to="A2A3"/>
    <trip id="104" depart="208.00" from="A1B1" to="E3E2"/>
    <trip id="105" depart="210.00" from="A1A2" to="C0D0"/>
    <trip id="106" depart="212.00" from="B1B0" to="B0C0"/>
    <trip id="107" depart="214.00" from="D2C2" to="D0C0"/>
    <trip id="108" depart="216.00" from="A1A2" to="B2B1"/>
    <trip id="109" depart="218.00" from="D0C0" to="A3A4"/>
    <trip id="110" depart="220.00" from="B3B2" to="B4C4"/>
    <trip id="111" depart="222.00" from="C2B2" to="E1D1"/>
    <trip id="112" depart="224.00" from="D2E2" to="B3B4"/>
    <trip id="113" depart="226.00" from="D3D2" to="B4C4"/>
    <trip id="114" depart="228.00" from="D3C3" to="A3B3"/>
    <trip id="115" depart="230.00" from="C1C2" to="C2C3"/>
    <trip id="116" depart="232.00" from="E1D1" to="E0D0"/>
    <trip id="117" depart="234.00" from="E4D4" to="C1C2"/>
    <trip id="118" depart="236.00" from="D0E0" to="C4D4"/>
    <trip id="119" depart="238.00" from="B2C2" to="D3C3"/>
    <trip id="120" depart="240.00" from="B2B1" to="C3C2"/>
    <trip id="121" depart="242.00" from="D2E2" to="A2A3"/>
    <trip id="122" depart="244.00" from="C0D0" to="B1B2"/>
    <trip id="123" depart="246.00" from="E1E0" to="E3E2"/>
    <trip id="124" depart="248.00" from="B1C1" to="E1E2"/>
    <trip id="125" depart="250.00" from="A4B4" to="D4E4"/>
    <trip id="126" depart="252.00" from="B0B1" to="D4E4"/>
    <trip id="127" depart="254.00" from="C3B3" to="B0C0"/>
    <trip id="128" depart="256.00" from="C0C1" to="B1C1"/>
    <trip id="129" depart="258.00" from="A1B1" to="C1D1"/>
    <trip id="130" depart="260.00" from="E3E4" to="C3C2"/>
    <trip id="131" depart="262.00" from="A2B2" to="D1D2"/>
    <trip id="132" depart="264.00" from="A1A2" to="B0A0"/>
    <trip id="133" depart="266.00" from="D0E0" to="C2D2"/>
    <trip id="134" depart="268.00" from="E4D4" to="A2B2"/>
    <trip id="135" depart="270.00" from="B4A4" to="C3C4"/>
    <trip id="136" depart="272.00" from="D4E4" to="A1B1"/>
    <trip id="137" depart="274.00" from="C2D2" to="E3D3"/>
    <trip id="138" depart="276.00" from="C1B1" to="C3D3"/>
    <trip id="139" depart="278.00" from="D2D3" to="A4B4"/>
    <trip id="140" depart="280.00" from="C1C0" to="D0D1"/>
    <trip id="141" depart="282.00" from="D2D1" to="D3D4"/>
    <trip id="142" depart="284.00" from="D3D2" to="A3A4"/>
    <trip id="143" depart="286.00" from="D0C0" to="B4B3"/>
    <trip id="144" depart="288.00" from="D4E4" to="B0B1"/>
    <trip id="145" depart="290.00" from="E2D2" to="C2C3"/>
    <trip id="146" depart="292.00" from="B2B1" to="D0C0"/>
    <trip id="147" depart="294.00" from="B3C3" to="B3B2"/>
    <trip id="148" depart="296.00" from="D4D3" to="B2B3"/>
    <trip id="149" depart="298.00" from="B1B2" to="A1B1"/>
    <trip id="150" depart="300.00" from="A1A0" to="B1A1"/>
    <trip id="151" depart="302.00" from="C2C1" to="C4D4"/>
    <trip id="152" depart="304.00" from="E3E4" to="A4B4"/>
    <trip id="153" depart="306.00" from="B4B3" to="E2E3"/>
    <trip id="154" depart="308.00" from="C2D2" to="A2A3"/>
    <trip id="155" depart="310.00" from="D3D2" to="E4D4"/>
    <trip id="156" depart="312.00" from="D1D0" to="D1C1"/>
    <trip id="157" depart="314.00" from="C1C2" to="B2B3"/>
    <trip id="158" depart="316.00" from="A2A3" to="D1D0"/>
    <trip id="159" depart="318.00" from="D0D1" to="A3A4"/>
    <trip id="160" depart="320.00" from="C1C0" to="B4C4"/>
    <trip id="161" depart="322.00" from="C2C1" to="B0C0"/>
    <trip id="162" depart="324.00" from="C0B0" to="D1D0"/>
    <trip id="163" depart="326.00" from="D2D3" to="B3B2"/>
    <trip id="164" depart="328.00" from="D3D2" to="A4B4"/>
    <trip id="165" depart="330.00" from="B2A2" to="A3B3"/>
    <trip id="166" depart="332.00" from="D0D1" to="C1C0"/>
    <trip id="167" depart="334.00" from="D4C4" to="C0B0"/>
    <trip id="168" depart="336.00" from="D1D2" to="C2C3"/>
    <trip id="169" depart="338.00" from="B1B0" to="C2C3"/>
    <trip id="170" depart="340.00" from="D1D2" to="D2D3"/>
    <trip id="171" depart="342.00" from="D3C3" to="C3B3"/>
    <trip id="172" depart="344.00" from="C2C3" to="C3C2"/>
    <trip id="173" depart="346.00" from="C0D0" to="C0B0"/>
    <trip id="174" depart="348.00" from="C1B1" to="E2E1"/>
    <trip id="175" depart="350.00" from="B3B4" to="E0D0"/>
    <trip id="176" depart="352.00" from="D2D1" to="A1B1"/>
    <trip id="177" depart="354.00" from="D0E0" to="C4C3"/>
    <trip id="178" depart="356.00" from="A4B4" to="A4B4"/>
    <trip id="179" depart="358.00" from="D4D3" to="A0A1"/>
    <trip id="180" depart="360.00" from="D1D2" to="B4C4"/>
    <trip id="181" depart="362.00" from="B2B1" to="C4D4"/>
    <trip id="182" depart="364.00" from="B4B3" to="A1A0"/>
    <trip id="183" depart="366.00" from="A1A0" to="C3D3"/>
    <trip id="184" depart="368.00" from="A4B4" to="D0D1"/>
    <trip id="185" depart="370.00" from="E3D3" to="D1C1"/>
    <trip id="186" depart="372.00" from="B1A1" to="D0E0"/>
    <trip id="187" depart="374.00" from="B1C1" to="D1E1"/>
    <trip id="188" depart="376.00" from="B1A1" to="D0D1"/>
    <trip id="189" depart="378.00" from="C2B2" to="A2B2"/>
    <trip id="190" depart="380.00" from="B3A3" to="E2E1"/>
    <trip id="191" depart="382.00" from="A1B1" to="E3D3"/>
    <trip id="192" depart="384.00" from="B1B2" to="B3C3"/>
    <trip id="193" depart="386.00" from="A0A1" to="C0D0"/>
    <trip id="194" depart="388.00" from="D2E2" to="E3E4"/>
    <trip id="195" depart="390.00" from="E3D3" to="A2A1"/>
    <trip id="196" depart="392.00" from="B1B2" to="C1C0"/>
    <trip id="197" depart="394.00" from="A2B2" to="E3E2"/>
    <trip id="198" depart="396.00" from="C4D4" to="B4C4"/>
    <trip id="199" depart="398.00" from="C4B4" to="A4A3"/>
</routes>
