<?xml version="1.0" encoding="UTF-8"?>
<!-- generated on 2019-09-22 19:06:08.362772 by $Id$
  options: -n /Users/jamie/Documents/University/Third Year/Project/SUMO/Tutorials/Advanced Tutorials/Scenario Guide/withingtonFallowfield.net.xml -e 400
-->
<routes xmlns:xsi="http://www.w3.org/2001/XMLSchema-instance" xsi:noNamespaceSchemaLocation="http://sumo.dlr.de/xsd/routes_file.xsd">
    <trip id="0" depart="0.00" from="4853426#7" to="-4422111#0"/>
    <trip id="1" depart="1.00" from="-4237559#0" to="-4473068#1"/>
    <trip id="2" depart="2.00" from="95704611#4" to="537948941#5"/>
    <trip id="3" depart="3.00" from="94138689#7" to="-122579961"/>
    <trip id="4" depart="4.00" from="-4853479#0" to="4414932#19"/>
    <trip id="5" depart="5.00" from="-23014096#4" to="-4473825#2"/>
    <trip id="6" depart="6.00" from="-200568050#2" to="-4242391#0"/>
    <trip id="7" depart="7.00" from="4473826#0" to="-4853389#3"/>
    <trip id="8" depart="8.00" from="-4414932#7" to="4237557#3"/>
    <trip id="9" depart="9.00" from="4795313#0" to="-4077084#0"/>
    <trip id="10" depart="10.00" from="537948947#4" to="-4473844"/>
    <trip id="11" depart="11.00" from="4242408#3" to="-4469168#1"/>
    <trip id="12" depart="12.00" from="-94138689#6" to="537948941#1"/>
    <trip id="13" depart="13.00" from="4237553#7" to="4795313#1"/>
    <trip id="14" depart="14.00" from="-4270608#2" to="-4853388#6"/>
    <trip id="15" depart="15.00" from="4853389#0" to="4237553#7"/>
    <trip id="16" depart="16.00" from="-155429442#11" to="-4795033#0"/>
    <trip id="17" depart="17.00" from="4606450#0" to="-155429442#9"/>
    <trip id="18" depart="18.00" from="-155429442#10" to="-4078725#3"/>
    <trip id="19" depart="19.00" from="-4473822#2" to="-4243699#1"/>
    <trip id="20" depart="20.00" from="4473830" to="4755262#2"/>
    <trip id="21" depart="21.00" from="-4853389#3" to="-4077083#3"/>
    <trip id="22" depart="22.00" from="4796270#1" to="-159415171#0"/>
    <trip id="23" depart="23.00" from="4967217#7" to="4853474#4"/>
    <trip id="24" depart="24.00" from="-155429442#4" to="-155429442#4"/>
    <trip id="25" depart="25.00" from="4082275#3" to="-4853388#8"/>
    <trip id="26" depart="26.00" from="4972006" to="4853324"/>
    <trip id="27" depart="27.00" from="-4419056#0" to="-4354790"/>
    <trip id="28" depart="28.00" from="-94138689#9" to="-4469169#1"/>
    <trip id="29" depart="29.00" from="4450551#3" to="94138689#13"/>
    <trip id="30" depart="30.00" from="-4853475#1" to="-4242413#1"/>
    <trip id="31" depart="31.00" from="4450552#2" to="-4853426#6"/>
    <trip id="32" depart="32.00" from="4415032#4" to="4243678"/>
    <trip id="33" depart="33.00" from="4237547#1" to="154832279#3"/>
    <trip id="34" depart="34.00" from="95704610#0" to="4215349#1"/>
    <trip id="35" depart="35.00" from="154832279#4" to="-4201527#1"/>
    <trip id="36" depart="36.00" from="-4853388#8" to="-4853360#1"/>
    <trip id="37" depart="37.00" from="154832279#5" to="-4237558#1"/>
    <trip id="38" depart="38.00" from="-4796268" to="-4077092#0"/>
    <trip id="39" depart="39.00" from="-4853480#1" to="-4353061#3"/>
    <trip id="40" depart="40.00" from="-200569149#1" to="4473067#1"/>
    <trip id="41" depart="41.00" from="-4853388#0" to="4201527#0"/>
    <trip id="42" depart="42.00" from="-4795033#1" to="-4350889#1"/>
    <trip id="43" depart="43.00" from="-4447509#0" to="-4447488#1"/>
    <trip id="44" depart="44.00" from="4237553#0" to="-95704610#9"/>
    <trip id="45" depart="45.00" from="-86019922" to="-603047673"/>
    <trip id="46" depart="46.00" from="-4853358#2" to="-4237552#0"/>
    <trip id="47" depart="47.00" from="-200568050#3" to="-95704611#0"/>
    <trip id="48" depart="48.00" from="-4242414#0" to="95704611#0"/>
    <trip id="49" depart="49.00" from="4450582#5" to="4473851#0"/>
    <trip id="50" depart="50.00" from="4853402#0" to="-4480796#1"/>
    <trip id="51" depart="51.00" from="-200568050#4" to="-4450552#1"/>
    <trip id="52" depart="52.00" from="4077071#9" to="4077071#2"/>
    <trip id="53" depart="53.00" from="4447488#1" to="-4473829#1"/>
    <trip id="54" depart="54.00" from="-4853388#1" to="-4077096#4"/>
    <trip id="55" depart="55.00" from="4077096#1" to="4316747#15"/>
    <trip id="56" depart="56.00" from="-4967217#10" to="534511778#1"/>
    <trip id="57" depart="57.00" from="-537948943#0" to="-4853402#0"/>
    <trip id="58" depart="58.00" from="-95704610#0" to="-4853428#1"/>
    <trip id="59" depart="59.00" from="-4447722#2" to="-4853428#4"/>
    <trip id="60" depart="60.00" from="-537948942#6" to="4796270#2"/>
    <trip id="61" depart="61.00" from="537948944#1" to="-4480797#0"/>
    <trip id="62" depart="62.00" from="4473937#0" to="-537948944#3"/>
    <trip id="63" depart="63.00" from="-4795313#1" to="-4469170#0"/>
    <trip id="64" depart="64.00" from="-4243716" to="-4614739#2"/>
    <trip id="65" depart="65.00" from="4415040" to="94138689#4"/>
    <trip id="66" depart="66.00" from="537981619#0" to="-4078405#1"/>
    <trip id="67" depart="67.00" from="4447493" to="518902034#1"/>
    <trip id="68" depart="68.00" from="4795036" to="-4078041#3"/>
    <trip id="69" depart="69.00" from="-4078725#0" to="-603047668#0"/>
    <trip id="70" depart="70.00" from="-4447490" to="-200569149#1"/>
    <trip id="71" depart="71.00" from="4853483#2" to="-4796265#0"/>
    <trip id="72" depart="72.00" from="-4270615#1" to="-4853479#1"/>
    <trip id="73" depart="73.00" from="4237560#5" to="-4855887#0"/>
    <trip id="74" depart="74.00" from="4809656" to="-537948944#3"/>
    <trip id="75" depart="75.00" from="159415171#4" to="-4077085#5"/>
    <trip id="76" depart="76.00" from="-95704610#2" to="4450552#3"/>
    <trip id="77" depart="77.00" from="-4853426#6" to="4237547#1"/>
    <trip id="78" depart="78.00" from="-4270608#3" to="4810335"/>
    <trip id="79" depart="79.00" from="-4606421#1" to="-4853426#7"/>
    <trip id="80" depart="80.00" from="4796266#0" to="172186614"/>
    <trip id="81" depart="81.00" from="4213069" to="-4795319"/>
    <trip id="82" depart="82.00" from="-4795311" to="-4967217#11"/>
    <trip id="83" depart="83.00" from="-4853399" to="95704610#16"/>
    <trip id="84" depart="84.00" from="4264185#7" to="-151943025#0"/>
    <trip id="85" depart="85.00" from="-4354791#0" to="-95704610#7"/>
    <trip id="86" depart="86.00" from="4242408#2" to="-200569149#3"/>
    <trip id="87" depart="87.00" from="-4422111#0" to="4473851#1"/>
    <trip id="88" depart="88.00" from="-4414932#7" to="-4473064#0"/>
    <trip id="89" depart="89.00" from="-4270533#7" to="-4447547"/>
    <trip id="90" depart="90.00" from="-200569149#4" to="200569149#2"/>
    <trip id="91" depart="91.00" from="4473063#0" to="-4237552#2"/>
    <trip id="92" depart="92.00" from="4447561#6" to="23014096#2"/>
    <trip id="93" depart="93.00" from="4819290#1" to="159274184#1"/>
    <trip id="94" depart="94.00" from="4414932#14" to="-4853476#3"/>
    <trip id="95" depart="95.00" from="4853474#2" to="4270608#3"/>
    <trip id="96" depart="96.00" from="4078041#1" to="94138689#12"/>
    <trip id="97" depart="97.00" from="-4419057#7" to="-4353061#0"/>
    <trip id="98" depart="98.00" from="-4447488#3" to="-4270615#4"/>
    <trip id="99" depart="99.00" from="-95704610#5" to="4353061#2"/>
    <trip id="100" depart="100.00" from="185995852#2" to="4796288"/>
    <trip id="101" depart="101.00" from="-4795323#1" to="23014096#3"/>
    <trip id="102" depart="102.00" from="-159274161" to="4215346"/>
    <trip id="103" depart="103.00" from="537948943#0" to="-190427583"/>
    <trip id="104" depart="104.00" from="4795312#0" to="-4077098#0"/>
    <trip id="105" depart="105.00" from="4213075#3" to="-159410059#0"/>
    <trip id="106" depart="106.00" from="-151943164" to="537948941#5"/>
    <trip id="107" depart="107.00" from="-4243638" to="-485926026#0"/>
    <trip id="108" depart="108.00" from="4422108#1" to="4853428#4"/>
    <trip id="109" depart="109.00" from="4480796#0" to="4422111#0"/>
    <trip id="110" depart="110.00" from="-4078725#4" to="4853306#1"/>
    <trip id="111" depart="111.00" from="4469316" to="-4414932#14"/>
    <trip id="112" depart="112.00" from="4853388#11" to="-4614739#3"/>
    <trip id="113" depart="113.00" from="4270533#7" to="4450582#6"/>
    <trip id="114" depart="114.00" from="-4480794#0" to="-4796288"/>
    <trip id="115" depart="115.00" from="-4270533#1" to="-4579140#1"/>
    <trip id="116" depart="116.00" from="-159274229" to="-4316747#3"/>
    <trip id="117" depart="117.00" from="-4480772#1" to="200569149#7"/>
    <trip id="118" depart="118.00" from="-4967217#1" to="4473851#2"/>
    <trip id="119" depart="119.00" from="-537948943#3" to="4480793#4"/>
    <trip id="120" depart="120.00" from="4473827" to="-4077084#1"/>
    <trip id="121" depart="121.00" from="4855887#0" to="-4473822#1"/>
    <trip id="122" depart="122.00" from="4215349#1" to="155429442#6"/>
    <trip id="123" depart="123.00" from="4853388#11" to="4755262#2"/>
    <trip id="124" depart="124.00" from="159274184#0" to="-4447525#1"/>
    <trip id="125" depart="125.00" from="4819250#0" to="-4077071#5"/>
    <trip id="126" depart="126.00" from="175274808" to="200568050#10"/>
    <trip id="127" depart="127.00" from="-4213112#2" to="-4853388#0"/>
    <trip id="128" depart="128.00" from="-4077092#3" to="-86029602"/>
    <trip id="129" depart="129.00" from="4264185#5" to="537981619#1"/>
    <trip id="130" depart="130.00" from="4243700#3" to="-4819250#1"/>
    <trip id="131" depart="131.00" from="4422109#0" to="4077085#5"/>
    <trip id="132" depart="132.00" from="-4579084#2" to="-4375201#4"/>
    <trip id="133" depart="133.00" from="4077071#5" to="-4795313#1"/>
    <trip id="134" depart="134.00" from="4796272#0" to="142434742"/>
    <trip id="135" depart="135.00" from="155429442#7" to="-4480793#4"/>
    <trip id="136" depart="136.00" from="4242397" to="-4853426#3"/>
    <trip id="137" depart="137.00" from="-166372593" to="4447561#1"/>
    <trip id="138" depart="138.00" from="-493748526" to="4078405#4"/>
    <trip id="139" depart="139.00" from="-4419057#0" to="-4242408#0"/>
    <trip id="140" depart="140.00" from="-4077096#3" to="4264185#0"/>
    <trip id="141" depart="141.00" from="172186615#2" to="-624774322#3"/>
    <trip id="142" depart="142.00" from="4441745" to="-4243697#0"/>
    <trip id="143" depart="143.00" from="159410059#3" to="-4213076#1"/>
    <trip id="144" depart="144.00" from="4853474#4" to="624774322#0"/>
    <trip id="145" depart="145.00" from="-4480798#0" to="-4853388#1"/>
    <trip id="146" depart="146.00" from="-155429442#12" to="-159410059#1"/>
    <trip id="147" depart="147.00" from="-172183148#2" to="4414932#16"/>
    <trip id="148" depart="148.00" from="518902034#1" to="4447525#1"/>
    <trip id="149" depart="149.00" from="4447525#1" to="-4316747#1"/>
    <trip id="150" depart="150.00" from="-518902034#11" to="-4237550#0"/>
    <trip id="151" depart="151.00" from="-4795322#1" to="4853389#5"/>
    <trip id="152" depart="152.00" from="-4853329" to="-4078725#3"/>
    <trip id="153" depart="153.00" from="-4967217#11" to="-4077085#5"/>
    <trip id="154" depart="154.00" from="185995851#0" to="4077085#4"/>
    <trip id="155" depart="155.00" from="-4354791#2" to="172183148#1"/>
    <trip id="156" depart="156.00" from="4967217#7" to="155429442#1"/>
    <trip id="157" depart="157.00" from="4077071#6" to="-4480793#3"/>
    <trip id="158" depart="158.00" from="479820844" to="4077082#1"/>
    <trip id="159" depart="159.00" from="-4237558#2" to="537981619#4"/>
    <trip id="160" depart="160.00" from="-4579088" to="4414932#18"/>
    <trip id="161" depart="161.00" from="94138689#1" to="-4237549"/>
    <trip id="162" depart="162.00" from="4450553" to="4270608#1"/>
    <trip id="163" depart="163.00" from="-4078725#0" to="4419057#2"/>
    <trip id="164" depart="164.00" from="4242393#3" to="4579085#0"/>
    <trip id="165" depart="165.00" from="4447489#2" to="-537948942#4"/>
    <trip id="166" depart="166.00" from="4809630" to="4264185#2"/>
    <trip id="167" depart="167.00" from="-4316747#3" to="23014096#5"/>
    <trip id="168" depart="168.00" from="4078726#3" to="4450553"/>
    <trip id="169" depart="169.00" from="159274216" to="95704611#0"/>
    <trip id="170" depart="170.00" from="-4077083#4" to="4242416#1"/>
    <trip id="171" depart="171.00" from="4242413#1" to="-4242330#0"/>
    <trip id="172" depart="172.00" from="-23014096#2" to="4473829#2"/>
    <trip id="173" depart="173.00" from="-4853475#5" to="-175275103"/>
    <trip id="174" depart="174.00" from="4082275#2" to="4237559#2"/>
    <trip id="175" depart="175.00" from="4450552#0" to="-4853388#11"/>
    <trip id="176" depart="176.00" from="-159274169#1" to="4967225#1"/>
    <trip id="177" depart="177.00" from="95704610#16" to="23014096#4"/>
    <trip id="178" depart="178.00" from="-4242263#1" to="-4473823#3"/>
    <trip id="179" depart="179.00" from="4853475#6" to="4414932#19"/>
    <trip id="180" depart="180.00" from="4853474#0" to="-537948943#1"/>
    <trip id="181" depart="181.00" from="4077083#0" to="94138689#13"/>
    <trip id="182" depart="182.00" from="-23336604#1" to="-4077071#0"/>
    <trip id="183" depart="183.00" from="4967225#0" to="-4375201#2"/>
    <trip id="184" depart="184.00" from="4422108#1" to="-537948941#2"/>
    <trip id="185" depart="185.00" from="-4853431#4" to="-537948942#0"/>
    <trip id="186" depart="186.00" from="-4237558#2" to="-4809626"/>
    <trip id="187" depart="187.00" from="-4316747#15" to="4237559#0"/>
    <trip id="188" depart="188.00" from="4606417#1" to="4415032#5"/>
    <trip id="189" depart="189.00" from="-4270615#2" to="-4967217#11"/>
    <trip id="190" depart="190.00" from="4237553#7" to="-4447550"/>
    <trip id="191" depart="191.00" from="-537948942#1" to="175274968#1"/>
    <trip id="192" depart="192.00" from="-4079415" to="-4243700#2"/>
    <trip id="193" depart="193.00" from="4353061#5" to="-4237559#0"/>
    <trip id="194" depart="194.00" from="485926026#0" to="-4316747#10"/>
    <trip id="195" depart="195.00" from="4237558#7" to="4243674"/>
    <trip id="196" depart="196.00" from="-4967225#2" to="4077098#3"/>
    <trip id="197" depart="197.00" from="-4473822#0" to="-4316747#12"/>
    <trip id="198" depart="198.00" from="-4354790" to="4853481#2"/>
    <trip id="199" depart="199.00" from="603047668#0" to="-4441728#0"/>
    <trip id="200" depart="200.00" from="4077098#2" to="4473822#3"/>
    <trip id="201" depart="201.00" from="4480002#0" to="-175274968#1"/>
    <trip id="202" depart="202.00" from="-4473835#0" to="-479820844"/>
    <trip id="203" depart="203.00" from="-4242413#0" to="-4350889#3"/>
    <trip id="204" depart="204.00" from="155429442#13" to="-155429442#10"/>
    <trip id="205" depart="205.00" from="-4967225#3" to="-4215253#0"/>
    <trip id="206" depart="206.00" from="-159274174" to="-4422109#1"/>
    <trip id="207" depart="207.00" from="-4215214#1" to="95704610#11"/>
    <trip id="208" depart="208.00" from="4795315#2" to="4372122#0"/>
    <trip id="209" depart="209.00" from="-200568050#9" to="-4419057#1"/>
    <trip id="210" depart="210.00" from="-4480002#1" to="-4853359"/>
    <trip id="211" depart="211.00" from="-4853388#9" to="4447722#2"/>
    <trip id="212" depart="212.00" from="4215349#1" to="-4447489#2"/>
    <trip id="213" depart="213.00" from="-4473975" to="4082275#0"/>
    <trip id="214" depart="214.00" from="-4480797#0" to="-77342816#0"/>
    <trip id="215" depart="215.00" from="4243699#0" to="4213112#1"/>
    <trip id="216" depart="216.00" from="4853426#5" to="-4853476#2"/>
    <trip id="217" depart="217.00" from="-4853426#6" to="-4078371#0"/>
    <trip id="218" depart="218.00" from="4579140#1" to="-4473827"/>
    <trip id="219" depart="219.00" from="-4606421#0" to="-4078725#1"/>
    <trip id="220" depart="220.00" from="537948942#4" to="4809626"/>
    <trip id="221" depart="221.00" from="-4359426" to="537948941#3"/>
    <trip id="222" depart="222.00" from="-4215212" to="95704610#16"/>
    <trip id="223" depart="223.00" from="4271972#4" to="4447525#2"/>
    <trip id="224" depart="224.00" from="4350888#2" to="-4078725#7"/>
    <trip id="225" depart="225.00" from="-4853388#10" to="94138689#11"/>
    <trip id="226" depart="226.00" from="-4213076#2" to="23336603#0"/>
    <trip id="227" depart="227.00" from="155429442#11" to="4077098#3"/>
    <trip id="228" depart="228.00" from="-4243697#1" to="-4614739#5"/>
    <trip id="229" depart="229.00" from="-175274808" to="-4270615#2"/>
    <trip id="230" depart="230.00" from="4419056#0" to="4849485"/>
    <trip id="231" depart="231.00" from="4853475#0" to="-4078405#0"/>
    <trip id="232" depart="232.00" from="95704610#15" to="-4473854#0"/>
    <trip id="233" depart="233.00" from="4242270#1" to="-4215213"/>
    <trip id="234" depart="234.00" from="4077083#4" to="-4796266#0"/>
    <trip id="235" depart="235.00" from="-4855887#0" to="-4447489#3"/>
    <trip id="236" depart="236.00" from="-4755262#1" to="4078405#0"/>
    <trip id="237" depart="237.00" from="-159274226" to="-4077092#3"/>
    <trip id="238" depart="238.00" from="4469168#1" to="4447490"/>
    <trip id="239" depart="239.00" from="603047673" to="4316747#5"/>
    <trip id="240" depart="240.00" from="4242349#1" to="4853306#1"/>
    <trip id="241" depart="241.00" from="4189891#4" to="4473855#1"/>
    <trip id="242" depart="242.00" from="4447722#1" to="-4853306#0"/>
    <trip id="243" depart="243.00" from="-4242330#1" to="-4853389#1"/>
    <trip id="244" depart="244.00" from="-4853336" to="4375201#6"/>
    <trip id="245" depart="245.00" from="4237558#8" to="558493047"/>
    <trip id="246" depart="246.00" from="-4480801" to="-4237547#3"/>
    <trip id="247" depart="247.00" from="-4316747#7" to="-4795315#1"/>
    <trip id="248" depart="248.00" from="-153988916" to="-4237553#6"/>
    <trip id="249" depart="249.00" from="-95704610#4" to="-4264185#2"/>
    <trip id="250" depart="250.00" from="-77342816#0" to="-4237547#2"/>
    <trip id="251" depart="251.00" from="4414932#5" to="-4480793#4"/>
    <trip id="252" depart="252.00" from="23336603#1" to="4853389#3"/>
    <trip id="253" depart="253.00" from="-4447493" to="-4473937#1"/>
    <trip id="254" depart="254.00" from="-4077096#4" to="4441728#1"/>
    <trip id="255" depart="255.00" from="-4853388#9" to="4480794#1"/>
    <trip id="256" depart="256.00" from="-4579084#1" to="-4795315#0"/>
    <trip id="257" depart="257.00" from="-603047668#2" to="4473822#0"/>
    <trip id="258" depart="258.00" from="4237553#6" to="-518902034#11"/>
    <trip id="259" depart="259.00" from="4447550" to="4353059#2"/>
    <trip id="260" depart="260.00" from="4447722#2" to="-4078725#7"/>
    <trip id="261" depart="261.00" from="-4853321" to="-4419055"/>
    <trip id="262" depart="262.00" from="-172186615#2" to="-4473067#1"/>
    <trip id="263" depart="263.00" from="4447510" to="-4473824"/>
    <trip id="264" depart="264.00" from="4447489#5" to="4414932#0"/>
    <trip id="265" depart="265.00" from="4447525#6" to="-4077085#5"/>
    <trip id="266" depart="266.00" from="172183147" to="172183148#3"/>
    <trip id="267" depart="267.00" from="95704610#15" to="4473822#0"/>
    <trip id="268" depart="268.00" from="-4213139#2" to="23336603#4"/>
    <trip id="269" depart="269.00" from="-4755262#1" to="-4480744#1"/>
    <trip id="270" depart="270.00" from="4242330#0" to="4078405#2"/>
    <trip id="271" depart="271.00" from="4237553#0" to="-4853429#1"/>
    <trip id="272" depart="272.00" from="-4189891#0" to="-4213112#1"/>
    <trip id="273" depart="273.00" from="4853474#3" to="-4414932#16"/>
    <trip id="274" depart="274.00" from="-4353061#2" to="-200568050#4"/>
    <trip id="275" depart="275.00" from="-4809656" to="-4480794#1"/>
    <trip id="276" depart="276.00" from="-4971348#1" to="-4480796#1"/>
    <trip id="277" depart="277.00" from="191543940" to="4419056#0"/>
    <trip id="278" depart="278.00" from="4422112#1" to="4414932#15"/>
    <trip id="279" depart="279.00" from="-4606449" to="624774324#5"/>
    <trip id="280" depart="280.00" from="-518902034#12" to="4419056#0"/>
    <trip id="281" depart="281.00" from="-4473975" to="4447525#4"/>
    <trip id="282" depart="282.00" from="537948942#0" to="-537948947#2"/>
    <trip id="283" depart="283.00" from="4414932#17" to="-4473851#3"/>
    <trip id="284" depart="284.00" from="537948943#2" to="4473937#1"/>
    <trip id="285" depart="285.00" from="4237559#0" to="4270608#0"/>
    <trip id="286" depart="286.00" from="-4316747#11" to="4447510"/>
    <trip id="287" depart="287.00" from="-4079415" to="4414932#5"/>
    <trip id="288" depart="288.00" from="-4213139#0" to="-159274184#0"/>
    <trip id="289" depart="289.00" from="-4264185#3" to="-4447489#1"/>
    <trip id="290" depart="290.00" from="4441745" to="-4853389#3"/>
    <trip id="291" depart="291.00" from="4473835#1" to="185995852#1"/>
    <trip id="292" depart="292.00" from="4350889#3" to="4419057#3"/>
    <trip id="293" depart="293.00" from="-4270533#10" to="-4447722#2"/>
    <trip id="294" depart="294.00" from="-4270533#0" to="-537948942#1"/>
    <trip id="295" depart="295.00" from="4242416#0" to="-4853361"/>
    <trip id="296" depart="296.00" from="-4473855#0" to="154832222#3"/>
    <trip id="297" depart="297.00" from="-4480794#1" to="-200568050#1"/>
    <trip id="298" depart="298.00" from="534511778#1" to="4243699#1"/>
    <trip id="299" depart="299.00" from="155429442#4" to="-166372615#0"/>
    <trip id="300" depart="300.00" from="4215212" to="4450582#6"/>
    <trip id="301" depart="301.00" from="-4795528" to="4447525#4"/>
    <trip id="302" depart="302.00" from="4447525#0" to="4350889#0"/>
    <trip id="303" depart="303.00" from="537948941#7" to="-4853388#2"/>
    <trip id="304" depart="304.00" from="-4270615#1" to="200568050#4"/>
    <trip id="305" depart="305.00" from="4189891#3" to="-4237558#10"/>
    <trip id="306" depart="306.00" from="-4213139#0" to="151943025#1"/>
    <trip id="307" depart="307.00" from="-4271972#5" to="-4853476#1"/>
    <trip id="308" depart="308.00" from="4447493" to="-537948942#3"/>
    <trip id="309" depart="309.00" from="-4480793#5" to="4242263#0"/>
    <trip id="310" depart="310.00" from="-159415171#3" to="159410059#3"/>
    <trip id="311" depart="311.00" from="-537948947#0" to="4242413#1"/>
    <trip id="312" depart="312.00" from="-4242406#1" to="-4614739#0"/>
    <trip id="313" depart="313.00" from="4853389#3" to="4853476#0"/>
    <trip id="314" depart="314.00" from="-4853428#2" to="159274184#1"/>
    <trip id="315" depart="315.00" from="-4372122#1" to="-4350889#1"/>
    <trip id="316" depart="316.00" from="-4469170#0" to="94138689#6"/>
    <trip id="317" depart="317.00" from="4350889#1" to="4350888#3"/>
    <trip id="318" depart="318.00" from="4795312#0" to="-159274216"/>
    <trip id="319" depart="319.00" from="4375201#3" to="4237553#0"/>
    <trip id="320" depart="320.00" from="-4242391#1" to="-4215214#2"/>
    <trip id="321" depart="321.00" from="185995852#2" to="159415171#3"/>
    <trip id="322" depart="322.00" from="4077098#1" to="-4853426#5"/>
    <trip id="323" depart="323.00" from="-624774322#3" to="4270615#3"/>
    <trip id="324" depart="324.00" from="-4077071#0" to="537948950"/>
    <trip id="325" depart="325.00" from="-200568050#9" to="4077071#7"/>
    <trip id="326" depart="326.00" from="-4237552#1" to="537948952#0"/>
    <trip id="327" depart="327.00" from="-151943025#1" to="-4353061#5"/>
    <trip id="328" depart="328.00" from="-4350888#2" to="-4796266#0"/>
    <trip id="329" depart="329.00" from="-4450582#1" to="4473062"/>
    <trip id="330" depart="330.00" from="8057837#0" to="518902034#12"/>
    <trip id="331" depart="331.00" from="-4819292#0" to="4450582#2"/>
    <trip id="332" depart="332.00" from="4480797#0" to="-624774322#2"/>
    <trip id="333" depart="333.00" from="4447489#0" to="4415032#4"/>
    <trip id="334" depart="334.00" from="-4077081" to="4316747#15"/>
    <trip id="335" depart="335.00" from="-4414932#3" to="-4422109#0"/>
    <trip id="336" depart="336.00" from="-159274169#1" to="4796268"/>
    <trip id="337" depart="337.00" from="-4480744#1" to="-4353061#2"/>
    <trip id="338" depart="338.00" from="-4354792#0" to="4450548"/>
    <trip id="339" depart="339.00" from="4237560#5" to="-159415171#1"/>
    <trip id="340" depart="340.00" from="4480798#0" to="-4606450#0"/>
    <trip id="341" depart="341.00" from="-537948941#6" to="4796270#0"/>
    <trip id="342" depart="342.00" from="4414932#0" to="95704610#3"/>
    <trip id="343" depart="343.00" from="4853429#1" to="-159410059#2"/>
    <trip id="344" depart="344.00" from="175274968#1" to="4242263#0"/>
    <trip id="345" depart="345.00" from="4215214#0" to="4853431#0"/>
    <trip id="346" depart="346.00" from="-4441727#2" to="159274184#0"/>
    <trip id="347" depart="347.00" from="-4414932#13" to="-172183148#1"/>
    <trip id="348" depart="348.00" from="-159274223" to="154832222#3"/>
    <trip id="349" depart="349.00" from="-4480772#1" to="4853481#1"/>
    <trip id="350" depart="350.00" from="-4237557#4" to="-4473822#2"/>
    <trip id="351" depart="351.00" from="4215214#2" to="154832279#2"/>
    <trip id="352" depart="352.00" from="4853361" to="4414932#13"/>
    <trip id="353" depart="353.00" from="4419057#0" to="4077081"/>
    <trip id="354" depart="354.00" from="-4473840" to="172183147"/>
    <trip id="355" depart="355.00" from="-4316747#2" to="-4473829#1"/>
    <trip id="356" depart="356.00" from="-4473974" to="143995810#1"/>
    <trip id="357" depart="357.00" from="-4201527#1" to="4473847"/>
    <trip id="358" depart="358.00" from="-4853475#3" to="159410053"/>
    <trip id="359" depart="359.00" from="-4237555" to="-4078725#1"/>
    <trip id="360" depart="360.00" from="-4447550" to="-4270533#5"/>
    <trip id="361" depart="361.00" from="-4795527#4" to="4414932#4"/>
    <trip id="362" depart="362.00" from="77342816#1" to="-4213076#1"/>
    <trip id="363" depart="363.00" from="624774324#0" to="4353059#0"/>
    <trip id="364" depart="364.00" from="-624774324#4" to="4237557#4"/>
    <trip id="365" depart="365.00" from="-4077085#5" to="4242393#1"/>
    <trip id="366" depart="366.00" from="-155429442#10" to="-4242408#0"/>
    <trip id="367" depart="367.00" from="4415032#0" to="534511778#3"/>
    <trip id="368" depart="368.00" from="-4078405#1" to="4447548#1"/>
    <trip id="369" depart="369.00" from="-4473062" to="-4243671"/>
    <trip id="370" depart="370.00" from="4473852" to="-4967225#3"/>
    <trip id="371" depart="371.00" from="-4242399" to="95704610#0"/>
    <trip id="372" depart="372.00" from="4447487" to="4441729#1"/>
    <trip id="373" depart="373.00" from="-4441727#1" to="94138689#0"/>
    <trip id="374" depart="374.00" from="4447488#0" to="-4414932#2"/>
    <trip id="375" depart="375.00" from="-4243643" to="-4473855#0"/>
    <trip id="376" depart="376.00" from="485926026#1" to="4796269"/>
    <trip id="377" depart="377.00" from="-4473064#0" to="4853359"/>
    <trip id="378" depart="378.00" from="-4447494" to="-4441729#0"/>
    <trip id="379" depart="379.00" from="-4215308" to="4795323#1"/>
    <trip id="380" depart="380.00" from="-4447525#5" to="4795528"/>
    <trip id="381" depart="381.00" from="-172186614" to="-86029602"/>
    <trip id="382" depart="382.00" from="155429442#7" to="4077084#2"/>
    <trip id="383" depart="383.00" from="-537948947#0" to="-4480744#0"/>
    <trip id="384" depart="384.00" from="4237558#6" to="-8057837#0"/>
    <trip id="385" depart="385.00" from="-4237553#7" to="-4375201#0"/>
    <trip id="386" depart="386.00" from="-4853476#3" to="4755262#2"/>
    <trip id="387" depart="387.00" from="4755262#1" to="4853401"/>
    <trip id="388" depart="388.00" from="-4795033#1" to="-4606421#0"/>
    <trip id="389" depart="389.00" from="-86019922" to="-537948941#1"/>
    <trip id="390" depart="390.00" from="4242270#1" to="-94138689#0"/>
    <trip id="391" depart="391.00" from="-4441729#1" to="4414932#6"/>
    <trip id="392" depart="392.00" from="159274184#0" to="4237557#1"/>
    <trip id="393" depart="393.00" from="-4237560#0" to="-624774323"/>
    <trip id="394" depart="394.00" from="-537948941#3" to="-4242263#0"/>
    <trip id="395" depart="395.00" from="-4853426#0" to="94138689#3"/>
    <trip id="396" depart="396.00" from="4243697#4" to="-95704611#1"/>
    <trip id="397" depart="397.00" from="-4447526" to="4237560#3"/>
    <trip id="398" depart="398.00" from="-4853428#3" to="-4450552#2"/>
    <trip id="399" depart="399.00" from="-4375201#3" to="4270533#1"/>
</routes>
