<?xml version="1.0" encoding="UTF-8"?>

<!-- generated on Tue Apr 14 10:23:52 2020 by Eclipse SUMO duarouter Version 1.2.0
<configuration xmlns:xsi="http://www.w3.org/2001/XMLSchema-instance" xsi:noNamespaceSchemaLocation="http://sumo.dlr.de/xsd/duarouterConfiguration.xsd">

    <input>
        <net-file value="test.net.xml"/>
        <route-files value="900Vehicles.trips.xml"/>
    </input>

    <output>
        <output-file value="900Vehicles.rou.xml"/>
        <alternatives-output value="900Vehicles.rou.alt.xml"/>
    </output>

    <report>
        <ignore-errors value="true"/>
    </report>

</configuration>
-->

<routes xmlns:xsi="http://www.w3.org/2001/XMLSchema-instance" xsi:noNamespaceSchemaLocation="http://sumo.dlr.de/xsd/routes_file.xsd">
    <vehicle id="0" depart="0.00">
        <route edges="A4A3 A3A2 A2A1"/>
    </vehicle>
    <vehicle id="2" depart="2.22">
        <route edges="C2B2 B2B3 B3C3 C3C2 C2C1 C1C0 C0B0 B0B1 B1C1 C1D1"/>
    </vehicle>
    <vehicle id="3" depart="3.33">
        <route edges="D1D0 D0C0 C0B0 B0B1 B1B2 B2C2"/>
    </vehicle>
    <vehicle id="5" depart="5.56">
        <route edges="C3D3 D3D2 D2C2 C2C3 C3C4 C4D4 D4D3 D3C3"/>
    </vehicle>
    <vehicle id="6" depart="6.67">
        <route edges="B0A0 A0A1 A1B1 B1C1 C1C0 C0B0 B0B1 B1B2"/>
    </vehicle>
    <vehicle id="7" depart="7.78">
        <route edges="C3C4 C4D4 D4D3 D3C3 C3B3 B3B4 B4C4"/>
    </vehicle>
    <vehicle id="8" depart="8.89">
        <route edges="D1D0 D0C0 C0B0 B0B1 B1B2 B2B3 B3B4 B4C4 C4C3"/>
    </vehicle>
    <vehicle id="9" depart="10.00">
        <route edges="B1B2 B2B3 B3C3 C3D3 D3E3 E3E2 E2D2"/>
    </vehicle>
    <vehicle id="10" depart="11.11">
        <route edges="D4C4 C4B4"/>
    </vehicle>
    <vehicle id="12" depart="13.33">
        <route edges="B2C2 C2D2 D2D1 D1C1 C1C2"/>
    </vehicle>
    <vehicle id="13" depart="14.44">
        <route edges="D3D4 D4E4 E4E3 E3E2 E2E1 E1E0 E0D0 D0D1"/>
    </vehicle>
    <vehicle id="14" depart="15.56">
        <route edges="B4B3 B3A3 A3A4 A4B4 B4C4 C4D4 D4D3 D3D2 D2D1"/>
    </vehicle>
    <vehicle id="15" depart="16.67">
        <route edges="B0A0 A0A1 A1A2 A2A3 A3A4 A4B4 B4C4 C4D4 D4D3 D3C3 C3C4"/>
    </vehicle>
    <vehicle id="16" depart="17.78">
        <route edges="C2B2 B2A2 A2A3 A3B3 B3B2 B2B1"/>
    </vehicle>
    <vehicle id="17" depart="18.89">
        <route edges="D1E1 E1E0 E0D0 D0C0 C0B0 B0A0 A0A1 A1A2"/>
    </vehicle>
    <vehicle id="18" depart="20.00">
        <route edges="B1B0 B0A0 A0A1 A1A2 A2B2 B2C2 C2D2 D2D1"/>
    </vehicle>
    <vehicle id="19" depart="21.11">
        <route edges="E2E3 E3E4 E4D4 D4C4 C4B4 B4A4 A4A3 A3A2 A2A1 A1A0 A0B0"/>
    </vehicle>
    <vehicle id="21" depart="23.33">
        <route edges="E2D2 D2C2 C2B2 B2A2 A2A3 A3B3 B3B2 B2B1 B1B0"/>
    </vehicle>
    <vehicle id="22" depart="24.44">
        <route edges="C1C0 C0B0 B0B1 B1B2 B2B3 B3C3"/>
    </vehicle>
    <vehicle id="23" depart="25.56">
        <route edges="C4D4 D4D3 D3D2 D2D1 D1C1 C1B1 B1A1 A1A2 A2B2"/>
    </vehicle>
    <vehicle id="27" depart="30.00">
        <route edges="A2B2 B2C2 C2D2 D2E2 E2E1 E1D1"/>
    </vehicle>
    <vehicle id="28" depart="31.11">
        <route edges="D3E3 E3E2 E2D2 D2C2 C2C3 C3D3 D3D2 D2D1"/>
    </vehicle>
    <vehicle id="29" depart="32.22">
        <route edges="C2B2 B2B3 B3C3 C3C2"/>
    </vehicle>
    <vehicle id="31" depart="34.44">
        <route edges="C0C1 C1C2 C2D2 D2E2 E2E1"/>
    </vehicle>
    <vehicle id="32" depart="35.56">
        <route edges="A1A2 A2B2 B2C2 C2C1 C1B1 B1B2 B2B3"/>
    </vehicle>
    <vehicle id="34" depart="37.78">
        <route edges="D2D3 D3D4 D4E4 E4E3 E3D3 D3C3 C3B3 B3B4 B4C4 C4C3"/>
    </vehicle>
    <vehicle id="38" depart="42.22">
        <route edges="C2B2 B2A2"/>
    </vehicle>
    <vehicle id="40" depart="44.44">
        <route edges="B1C1 C1C0 C0B0 B0B1 B1B2 B2B3 B3C3 C3D3 D3D2"/>
    </vehicle>
    <vehicle id="41" depart="45.56">
        <route edges="B0B1 B1C1 C1D1 D1D0 D0C0"/>
    </vehicle>
    <vehicle id="42" depart="46.67">
        <route edges="A1B1 B1B0 B0A0 A0A1 A1A2 A2A3 A3A4 A4B4 B4C4 C4C3"/>
    </vehicle>
    <vehicle id="43" depart="47.78">
        <route edges="B1B2 B2C2 C2C1 C1C0 C0B0 B0B1 B1C1"/>
    </vehicle>
    <vehicle id="45" depart="50.00">
        <route edges="B2A2 A2A3 A3B3 B3C3 C3D3 D3D2 D2D1 D1D0 D0C0"/>
    </vehicle>
    <vehicle id="48" depart="53.33">
        <route edges="A3A2 A2A1 A1A0 A0B0 B0C0 C0D0 D0E0 E0E1 E1E2 E2E3"/>
    </vehicle>
    <vehicle id="49" depart="54.44">
        <route edges="B3B4 B4C4 C4D4 D4D3 D3D2 D2D1 D1C1 C1C2"/>
    </vehicle>
    <vehicle id="50" depart="55.56">
        <route edges="D4D3 D3D2 D2C2 C2C3 C3D3 D3E3"/>
    </vehicle>
    <vehicle id="51" depart="56.67">
        <route edges="C2C1 C1B1 B1B2 B2B3 B3B4 B4C4 C4C3"/>
    </vehicle>
    <vehicle id="52" depart="57.78">
        <route edges="A3B3 B3B2 B2B1 B1B0 B0A0 A0A1"/>
    </vehicle>
    <vehicle id="58" depart="64.44">
        <route edges="E3E2 E2E1 E1D1 D1C1 C1B1 B1B2 B2C2"/>
    </vehicle>
    <vehicle id="59" depart="65.56">
        <route edges="B2C2 C2C1 C1B1 B1B2 B2B3 B3C3"/>
    </vehicle>
    <vehicle id="61" depart="67.78">
        <route edges="D2D3 D3E3 E3E2 E2E1 E1D1"/>
    </vehicle>
    <vehicle id="62" depart="68.89">
        <route edges="C4D4 D4D3 D3C3 C3B3 B3A3 A3A4 A4B4 B4B3"/>
    </vehicle>
    <vehicle id="64" depart="71.11">
        <route edges="A4B4 B4B3 B3B2 B2B1 B1A1 A1A2 A2B2"/>
    </vehicle>
    <vehicle id="66" depart="73.33">
        <route edges="E1D1 D1C1 C1C2 C2D2"/>
    </vehicle>
    <vehicle id="67" depart="74.44">
        <route edges="D4E4 E4E3 E3E2 E2E1 E1D1"/>
    </vehicle>
    <vehicle id="68" depart="75.56">
        <route edges="C2C3 C3C4 C4D4 D4D3 D3C3"/>
    </vehicle>
    <vehicle id="69" depart="76.67">
        <route edges="B1C1 C1C0 C0B0 B0B1 B1B2 B2B3 B3B4 B4C4 C4C3 C3B3"/>
    </vehicle>
    <vehicle id="70" depart="77.78">
        <route edges="C1C0 C0B0 B0B1 B1B2 B2B3 B3B4 B4C4 C4D4 D4D3"/>
    </vehicle>
    <vehicle id="71" depart="78.89">
        <route edges="B2C2 C2C1 C1C0 C0B0 B0A0 A0A1 A1B1"/>
    </vehicle>
    <vehicle id="72" depart="80.00">
        <route edges="D2E2 E2E1 E1D1 D1C1 C1C2 C2D2"/>
    </vehicle>
    <vehicle id="73" depart="81.11">
        <route edges="B4C4 C4D4 D4E4 E4E3 E3E2 E2D2 D2D3 D3E3"/>
    </vehicle>
    <vehicle id="74" depart="82.22">
        <route edges="A1A2 A2A3 A3B3"/>
    </vehicle>
    <vehicle id="75" depart="83.33">
        <route edges="D1E1 E1E0 E0D0 D0C0 C0B0 B0B1 B1C1"/>
    </vehicle>
    <vehicle id="76" depart="84.44">
        <route edges="D3D4 D4E4 E4E3 E3E2 E2E1 E1D1 D1C1 C1B1 B1A1"/>
    </vehicle>
    <vehicle id="77" depart="85.56">
        <route edges="E2E3 E3E4 E4D4 D4C4 C4B4 B4A4 A4A3 A3A2 A2A1 A1A0 A0B0 B0C0"/>
    </vehicle>
    <vehicle id="79" depart="87.78">
        <route edges="E1D1 D1C1 C1B1 B1A1"/>
    </vehicle>
    <vehicle id="80" depart="88.89">
        <route edges="D1C1 C1C2 C2D2 D2E2 E2E1 E1E0 E0D0"/>
    </vehicle>
    <vehicle id="82" depart="91.11">
        <route edges="C1D1 D1D0 D0C0 C0C1 C1C2 C2C3 C3C4 C4D4"/>
    </vehicle>
    <vehicle id="84" depart="93.33">
        <route edges="D2D1 D1C1 C1C2 C2D2 D2E2"/>
    </vehicle>
    <vehicle id="85" depart="94.44">
        <route edges="D0D1 D1E1 E1E0 E0D0 D0C0 C0B0 B0A0 A0A1 A1B1 B1B0"/>
    </vehicle>
    <vehicle id="86" depart="95.56">
        <route edges="B1C1 C1D1 D1E1 E1E0 E0D0 D0D1 D1D2 D2D3 D3E3 E3E2 E2D2"/>
    </vehicle>
    <vehicle id="88" depart="97.78">
        <route edges="B3A3 A3A4 A4B4 B4C4 C4D4 D4D3 D3D2 D2D1 D1D0 D0C0 C0C1 C1D1"/>
    </vehicle>
    <vehicle id="89" depart="98.89">
        <route edges="B2B3 B3B4"/>
    </vehicle>
    <vehicle id="90" depart="100.00">
        <route edges="E4E3 E3E2 E2D2 D2C2 C2C3"/>
    </vehicle>
    <vehicle id="92" depart="102.22">
        <route edges="C1B1 B1B2 B2C2 C2C1 C1C0 C0B0 B0B1 B1C1"/>
    </vehicle>
    <vehicle id="93" depart="103.33">
        <route edges="D0C0 C0B0 B0A0 A0A1 A1A2 A2B2 B2B1 B1A1"/>
    </vehicle>
    <vehicle id="94" depart="104.44">
        <route edges="D3D2 D2C2 C2C3"/>
    </vehicle>
    <vehicle id="95" depart="105.56">
        <route edges="D3D4 D4E4 E4E3 E3E2 E2E1 E1E0 E0D0 D0C0 C0C1 C1D1"/>
    </vehicle>
    <vehicle id="96" depart="106.67">
        <route edges="B1A1 A1A2 A2B2 B2C2 C2D2 D2D1 D1D0 D0C0"/>
    </vehicle>
    <vehicle id="97" depart="107.78">
        <route edges="D3D2 D2D1 D1D0 D0C0 C0B0 B0A0 A0A1"/>
    </vehicle>
    <vehicle id="98" depart="108.89">
        <route edges="C4D4 D4E4 E4E3 E3E2"/>
    </vehicle>
    <vehicle id="99" depart="110.00">
        <route edges="D1D0 D0C0 C0B0 B0B1 B1B2 B2B3 B3C3 C3C2"/>
    </vehicle>
    <vehicle id="100" depart="111.11">
        <route edges="B1B2 B2B3 B3B4 B4C4"/>
    </vehicle>
    <vehicle id="101" depart="112.22">
        <route edges="B4C4 C4D4 D4E4 E4E3 E3E2 E2E1 E1D1 D1D2"/>
    </vehicle>
    <vehicle id="102" depart="113.33">
        <route edges="E3E4 E4D4 D4C4 C4B4 B4A4 A4A3 A3A2"/>
    </vehicle>
    <vehicle id="103" depart="114.44">
        <route edges="B2B3 B3C3 C3C2 C2C1 C1C0 C0B0 B0B1"/>
    </vehicle>
    <vehicle id="104" depart="115.56">
        <route edges="C2C3 C3D3 D3D2 D2D1 D1C1 C1C2 C2D2"/>
    </vehicle>
    <vehicle id="105" depart="116.67">
        <route edges="D2E2 E2E1 E1D1 D1C1 C1B1 B1B2 B2B3"/>
    </vehicle>
    <vehicle id="106" depart="117.78">
        <route edges="B3B4 B4C4 C4C3 C3B3 B3A3 A3A4 A4B4 B4B3 B3B2"/>
    </vehicle>
    <vehicle id="108" depart="120.00">
        <route edges="E4E3 E3E2 E2D2 D2C2 C2B2 B2B3"/>
    </vehicle>
    <vehicle id="109" depart="121.11">
        <route edges="C3D3 D3E3 E3E2 E2E1 E1E0 E0D0"/>
    </vehicle>
    <vehicle id="110" depart="122.22">
        <route edges="C2B2 B2B3 B3C3 C3D3 D3D2 D2D1 D1C1 C1C2"/>
    </vehicle>
    <vehicle id="111" depart="123.33">
        <route edges="D3E3 E3E2 E2E1 E1E0 E0D0 D0D1"/>
    </vehicle>
    <vehicle id="112" depart="124.44">
        <route edges="C3D3 D3D2 D2D1 D1D0 D0C0"/>
    </vehicle>
    <vehicle id="113" depart="125.56">
        <route edges="C4C3 C3B3 B3A3"/>
    </vehicle>
    <vehicle id="115" depart="127.78">
        <route edges="D0C0 C0C1 C1C2"/>
    </vehicle>
    <vehicle id="117" depart="130.00">
        <route edges="D2E2 E2E1 E1D1"/>
    </vehicle>
    <vehicle id="118" depart="131.11">
        <route edges="B1B0 B0A0 A0A1 A1A2 A2A3 A3A4 A4B4 B4C4 C4C3 C3B3 B3B4"/>
    </vehicle>
    <vehicle id="122" depart="135.56">
        <route edges="E4D4 D4C4 C4B4 B4A4 A4A3 A3A2 A2A1 A1A0"/>
    </vehicle>
    <vehicle id="126" depart="140.00">
        <route edges="B4C4 C4D4 D4E4 E4E3 E3E2 E2D2 D2D3 D3E3"/>
    </vehicle>
    <vehicle id="128" depart="142.22">
        <route edges="D4D3 D3C3 C3C4 C4D4 D4E4 E4E3 E3E2 E2E1 E1D1"/>
    </vehicle>
    <vehicle id="130" depart="144.44">
        <route edges="E4E3 E3E2 E2D2 D2C2 C2B2 B2A2 A2A3 A3B3"/>
    </vehicle>
    <vehicle id="131" depart="145.56">
        <route edges="A4B4 B4C4 C4D4"/>
    </vehicle>
    <vehicle id="135" depart="150.00">
        <route edges="C0C1 C1C2 C2C3 C3D3 D3D2 D2C2 C2B2 B2A2"/>
    </vehicle>
    <vehicle id="136" depart="151.11">
        <route edges="D0D1 D1E1 E1E0 E0D0 D0C0 C0B0 B0A0 A0A1 A1A2"/>
    </vehicle>
    <vehicle id="138" depart="153.33">
        <route edges="D1D2 D2E2 E2E1 E1D1 D1C1 C1B1 B1A1 A1A2 A2B2 B2B1"/>
    </vehicle>
    <vehicle id="139" depart="154.44">
        <route edges="B0B1 B1C1 C1D1"/>
    </vehicle>
    <vehicle id="140" depart="155.56">
        <route edges="A1A0 A0B0 B0C0 C0D0 D0E0 E0E1 E1E2 E2E3 E3E4 E4D4 D4C4 C4B4"/>
    </vehicle>
    <vehicle id="141" depart="156.67">
        <route edges="D1C1 C1C2 C2C3 C3D3 D3D2 D2C2"/>
    </vehicle>
    <vehicle id="142" depart="157.78">
        <route edges="C1B1 B1B2 B2C2 C2C1 C1C0 C0B0 B0A0 A0A1"/>
    </vehicle>
    <vehicle id="143" depart="158.89">
        <route edges="B2B3 B3C3 C3D3 D3E3 E3E2 E2E1 E1D1"/>
    </vehicle>
    <vehicle id="144" depart="160.00">
        <route edges="B1C1 C1C0 C0B0 B0B1 B1B2 B2B3 B3B4 B4C4 C4D4"/>
    </vehicle>
    <vehicle id="148" depart="164.44">
        <route edges="D3C3 C3C4 C4D4 D4D3 D3D2 D2D1 D1C1 C1B1"/>
    </vehicle>
    <vehicle id="149" depart="165.56">
        <route edges="A2B2 B2C2 C2D2 D2D1 D1C1 C1C2 C2C3"/>
    </vehicle>
    <vehicle id="152" depart="168.89">
        <route edges="C1C0 C0B0 B0A0 A0A1 A1A2"/>
    </vehicle>
    <vehicle id="154" depart="171.11">
        <route edges="E3E2 E2D2 D2C2 C2B2 B2B3 B3B4 B4C4"/>
    </vehicle>
    <vehicle id="155" depart="172.22">
        <route edges="C4C3 C3C2 C2C1 C1C0 C0B0 B0A0"/>
    </vehicle>
    <vehicle id="156" depart="173.33">
        <route edges="B3B2 B2B1 B1A1 A1A2"/>
    </vehicle>
    <vehicle id="157" depart="174.44">
        <route edges="B0A0 A0A1 A1B1 B1C1 C1D1 D1E1"/>
    </vehicle>
    <vehicle id="158" depart="175.56">
        <route edges="D0C0 C0C1 C1C2 C2D2"/>
    </vehicle>
    <vehicle id="159" depart="176.67">
        <route edges="D2D3 D3E3 E3E2 E2D2 D2C2 C2C3 C3D3 D3D2"/>
    </vehicle>
    <vehicle id="161" depart="178.89">
        <route edges="B3C3 C3C2 C2B2"/>
    </vehicle>
    <vehicle id="162" depart="180.00">
        <route edges="B1B0 B0A0 A0A1 A1A2 A2A3 A3B3 B3C3 C3D3 D3D2 D2C2"/>
    </vehicle>
    <vehicle id="163" depart="181.11">
        <route edges="C4C3 C3B3 B3B4 B4C4 C4D4 D4E4 E4E3 E3E2 E2D2 D2D3"/>
    </vehicle>
    <vehicle id="164" depart="182.22">
        <route edges="D1E1 E1E0 E0D0 D0C0 C0B0 B0A0 A0A1 A1A2 A2B2 B2B1 B1A1"/>
    </vehicle>
    <vehicle id="165" depart="183.33">
        <route edges="B3A3 A3A4 A4B4 B4C4 C4D4 D4E4 E4E3 E3E2 E2D2 D2D3"/>
    </vehicle>
    <vehicle id="167" depart="185.56">
        <route edges="B4C4 C4C3 C3C2 C2C1 C1B1 B1B2 B2C2"/>
    </vehicle>
    <vehicle id="168" depart="186.67">
        <route edges="D0E0 E0E1 E1E2 E2E3 E3E4 E4D4 D4C4 C4B4 B4A4 A4A3 A3A2 A2A1 A1A0"/>
    </vehicle>
    <vehicle id="169" depart="187.78">
        <route edges="D3C3 C3C4 C4D4 D4D3 D3D2 D2D1 D1C1 C1B1 B1B2 B2C2"/>
    </vehicle>
    <vehicle id="170" depart="188.89">
        <route edges="E4E3 E3E2 E2D2 D2C2 C2C3 C3D3 D3D2 D2D1"/>
    </vehicle>
    <vehicle id="173" depart="192.22">
        <route edges="D2D1 D1C1 C1C2 C2C3"/>
    </vehicle>
    <vehicle id="175" depart="194.44">
        <route edges="C3C2 C2B2 B2B3 B3C3 C3D3 D3D2"/>
    </vehicle>
    <vehicle id="180" depart="200.00">
        <route edges="B1B0 B0A0 A0A1 A1A2 A2A3 A3A4 A4B4 B4C4"/>
    </vehicle>
    <vehicle id="181" depart="201.11">
        <route edges="B3B2 B2B1 B1B0 B0A0 A0A1 A1B1 B1C1 C1D1"/>
    </vehicle>
    <vehicle id="182" depart="202.22">
        <route edges="C3B3 B3A3 A3A4 A4B4 B4B3 B3B2 B2B1 B1A1 A1A2 A2B2"/>
    </vehicle>
    <vehicle id="183" depart="203.33">
        <route edges="C2D2 D2D1 D1D0"/>
    </vehicle>
    <vehicle id="184" depart="204.44">
        <route edges="C1D1 D1E1 E1E0 E0D0 D0D1 D1D2 D2D3 D3D4 D4E4 E4E3"/>
    </vehicle>
    <vehicle id="185" depart="205.56">
        <route edges="B3A3 A3A4 A4B4 B4B3 B3B2 B2B1 B1B0 B0A0"/>
    </vehicle>
    <vehicle id="186" depart="206.67">
        <route edges="B2B3 B3C3 C3C2"/>
    </vehicle>
    <vehicle id="187" depart="207.78">
        <route edges="C3C2 C2B2 B2A2 A2A3"/>
    </vehicle>
    <vehicle id="188" depart="208.89">
        <route edges="E0D0 D0C0 C0B0 B0A0 A0A1"/>
    </vehicle>
    <vehicle id="189" depart="210.00">
        <route edges="B3B2 B2A2 A2A3 A3B3 B3C3 C3D3 D3E3"/>
    </vehicle>
    <vehicle id="191" depart="212.22">
        <route edges="E1E0 E0D0 D0C0 C0C1 C1C2 C2C3 C3C4"/>
    </vehicle>
    <vehicle id="192" depart="213.33">
        <route edges="C2B2 B2A2 A2A3 A3B3"/>
    </vehicle>
    <vehicle id="194" depart="215.56">
        <route edges="C3B3 B3B4 B4C4 C4D4 D4E4 E4E3 E3E2 E2E1 E1D1 D1D2 D2E2"/>
    </vehicle>
    <vehicle id="195" depart="216.67">
        <route edges="D3D4 D4E4 E4E3 E3D3 D3C3"/>
    </vehicle>
    <vehicle id="196" depart="217.78">
        <route edges="D0D1 D1E1 E1E0 E0D0 D0C0 C0B0 B0B1 B1B2"/>
    </vehicle>
    <vehicle id="198" depart="220.00">
        <route edges="B3B4 B4C4 C4C3 C3C2 C2B2 B2B3 B3C3"/>
    </vehicle>
    <vehicle id="199" depart="221.11">
        <route edges="C2B2 B2A2 A2A3 A3B3 B3B2 B2B1"/>
    </vehicle>
    <vehicle id="201" depart="223.33">
        <route edges="E1D1 D1D2 D2D3 D3E3"/>
    </vehicle>
    <vehicle id="202" depart="224.44">
        <route edges="E2E1 E1D1 D1C1 C1B1 B1A1"/>
    </vehicle>
    <vehicle id="203" depart="225.56">
        <route edges="B3B4 B4C4 C4C3 C3C2 C2B2 B2B3 B3C3"/>
    </vehicle>
    <vehicle id="205" depart="227.78">
        <route edges="A3B3 B3B2 B2B1 B1A1"/>
    </vehicle>
    <vehicle id="206" depart="228.89">
        <route edges="B2B3 B3B4 B4C4 C4C3 C3B3 B3A3"/>
    </vehicle>
    <vehicle id="208" depart="231.11">
        <route edges="B2B1 B1B0 B0A0 A0A1 A1B1"/>
    </vehicle>
    <vehicle id="209" depart="232.22">
        <route edges="E3D3 D3D4 D4E4 E4E3 E3E2 E2E1 E1D1 D1C1 C1C2"/>
    </vehicle>
    <vehicle id="210" depart="233.33">
        <route edges="B3C3 C3C2 C2C1 C1C0 C0B0 B0A0 A0A1 A1B1"/>
    </vehicle>
    <vehicle id="211" depart="234.44">
        <route edges="E2E1 E1D1 D1C1 C1C2 C2C3 C3C4 C4D4 D4D3"/>
    </vehicle>
    <vehicle id="214" depart="237.78">
        <route edges="A3A4 A4B4 B4C4 C4D4 D4E4 E4E3 E3E2 E2E1 E1E0 E0D0 D0D1 D1E1"/>
    </vehicle>
    <vehicle id="215" depart="238.89">
        <route edges="D1E1 E1E0 E0D0 D0C0 C0B0 B0B1 B1B2 B2B3 B3B4 B4C4"/>
    </vehicle>
    <vehicle id="216" depart="240.00">
        <route edges="A2B2 B2C2 C2D2 D2E2 E2E1 E1E0 E0D0 D0D1 D1E1"/>
    </vehicle>
    <vehicle id="217" depart="241.11">
        <route edges="C0B0 B0A0 A0A1 A1A2 A2B2"/>
    </vehicle>
    <vehicle id="218" depart="242.22">
        <route edges="D1C1 C1B1 B1A1 A1A2 A2B2"/>
    </vehicle>
    <vehicle id="220" depart="244.44">
        <route edges="B3B4 B4C4 C4C3 C3C2 C2C1 C1C0 C0B0"/>
    </vehicle>
    <vehicle id="221" depart="245.56">
        <route edges="A1B1 B1C1 C1D1 D1D0 D0C0 C0C1"/>
    </vehicle>
    <vehicle id="222" depart="246.67">
        <route edges="D3C3 C3B3 B3A3"/>
    </vehicle>
    <vehicle id="224" depart="248.89">
        <route edges="B2B1 B1B0 B0A0 A0A1 A1B1 B1C1"/>
    </vehicle>
    <vehicle id="226" depart="251.11">
        <route edges="D2C2 C2B2 B2B3 B3B4"/>
    </vehicle>
    <vehicle id="227" depart="252.22">
        <route edges="C1C2 C2D2 D2D1 D1C1 C1B1 B1A1 A1A2 A2A3 A3B3 B3B2"/>
    </vehicle>
    <vehicle id="228" depart="253.33">
        <route edges="E4E3 E3D3 D3C3 C3B3 B3B4 B4C4 C4C3 C3C2"/>
    </vehicle>
    <vehicle id="229" depart="254.44">
        <route edges="D1E1 E1E0 E0D0 D0C0 C0C1 C1C2 C2C3 C3D3 D3D2 D2C2"/>
    </vehicle>
    <vehicle id="230" depart="255.56">
        <route edges="D1C1 C1C2 C2D2 D2D1 D1D0 D0C0 C0B0 B0A0 A0A1 A1B1"/>
    </vehicle>
    <vehicle id="231" depart="256.67">
        <route edges="D2D1 D1D0 D0C0"/>
    </vehicle>
    <vehicle id="232" depart="257.78">
        <route edges="C2C3 C3D3 D3D2 D2D1 D1C1 C1B1 B1A1"/>
    </vehicle>
    <vehicle id="235" depart="261.11">
        <route edges="E0D0 D0D1 D1D2 D2D3 D3D4 D4E4 E4E3"/>
    </vehicle>
    <vehicle id="236" depart="262.22">
        <route edges="E4E3 E3E2 E2E1 E1D1 D1C1 C1C2"/>
    </vehicle>
    <vehicle id="237" depart="263.33">
        <route edges="C3C2 C2B2 B2B3 B3C3 C3D3 D3E3 E3E2 E2E1 E1D1"/>
    </vehicle>
    <vehicle id="238" depart="264.44">
        <route edges="A2A3 A3B3 B3C3 C3D3 D3D2 D2D1 D1C1"/>
    </vehicle>
    <vehicle id="239" depart="265.56">
        <route edges="A2A3 A3B3 B3C3 C3D3 D3E3 E3E2 E2D2"/>
    </vehicle>
    <vehicle id="240" depart="266.67">
        <route edges="B2C2 C2D2 D2E2 E2E1 E1E0 E0D0 D0D1 D1E1"/>
    </vehicle>
    <vehicle id="241" depart="267.78">
        <route edges="C3B3 B3B4 B4C4 C4D4 D4D3 D3D2"/>
    </vehicle>
    <vehicle id="242" depart="268.89">
        <route edges="C2C3 C3D3 D3D2 D2D1 D1D0 D0C0 C0C1"/>
    </vehicle>
    <vehicle id="244" depart="271.11">
        <route edges="C0D0 D0E0 E0E1 E1E2 E2E3 E3E4 E4D4 D4C4 C4B4 B4A4 A4A3 A3A2"/>
    </vehicle>
    <vehicle id="245" depart="272.22">
        <route edges="C3D3 D3D2 D2D1 D1D0 D0C0 C0B0 B0A0 A0A1 A1B1 B1B0"/>
    </vehicle>
    <vehicle id="246" depart="273.33">
        <route edges="E0D0 D0C0 C0B0 B0B1 B1B2 B2B3 B3B4 B4C4"/>
    </vehicle>
    <vehicle id="247" depart="274.44">
        <route edges="C2D2 D2D1 D1C1 C1C2 C2C3 C3C4"/>
    </vehicle>
    <vehicle id="248" depart="275.56">
        <route edges="C3C2 C2B2 B2B3 B3B4 B4C4 C4C3"/>
    </vehicle>
    <vehicle id="249" depart="276.67">
        <route edges="D1D0 D0C0 C0B0 B0A0 A0A1 A1A2 A2A3 A3A4 A4B4"/>
    </vehicle>
    <vehicle id="250" depart="277.78">
        <route edges="B3B4 B4C4 C4D4 D4D3 D3D2 D2C2 C2C3"/>
    </vehicle>
    <vehicle id="252" depart="280.00">
        <route edges="A1A2 A2A3 A3B3 B3C3 C3D3"/>
    </vehicle>
    <vehicle id="253" depart="281.11">
        <route edges="D3C3 C3C4 C4D4 D4D3 D3D2 D2D1 D1D0"/>
    </vehicle>
    <vehicle id="254" depart="282.22">
        <route edges="C3C2 C2B2 B2B3 B3B4 B4C4 C4D4 D4D3 D3C3"/>
    </vehicle>
    <vehicle id="255" depart="283.33">
        <route edges="B2B3 B3C3 C3C2 C2B2 B2A2 A2A3 A3B3"/>
    </vehicle>
    <vehicle id="256" depart="284.44">
        <route edges="C0C1 C1D1 D1E1 E1E0 E0D0 D0D1 D1D2 D2D3"/>
    </vehicle>
    <vehicle id="257" depart="285.56">
        <route edges="A2B2 B2B1 B1B0"/>
    </vehicle>
    <vehicle id="260" depart="288.89">
        <route edges="C1C2 C2C3 C3C4 C4D4 D4D3 D3C3 C3B3 B3A3 A3A4"/>
    </vehicle>
    <vehicle id="261" depart="290.00">
        <route edges="B1A1 A1A2 A2A3 A3B3 B3C3 C3D3 D3D2"/>
    </vehicle>
    <vehicle id="263" depart="292.22">
        <route edges="A3B3 B3C3 C3C2 C2C1 C1C0"/>
    </vehicle>
    <vehicle id="264" depart="293.33">
        <route edges="C1C0 C0B0 B0A0 A0A1 A1A2 A2A3 A3B3"/>
    </vehicle>
    <vehicle id="265" depart="294.44">
        <route edges="D0D1 D1D2"/>
    </vehicle>
    <vehicle id="266" depart="295.56">
        <route edges="B2A2 A2A3 A3A4 A4B4 B4C4 C4D4 D4E4"/>
    </vehicle>
    <vehicle id="268" depart="297.78">
        <route edges="E1E0 E0D0 D0C0 C0B0 B0A0 A0A1"/>
    </vehicle>
    <vehicle id="269" depart="298.89">
        <route edges="E1E0 E0D0 D0C0 C0B0 B0A0 A0A1 A1A2 A2A3 A3B3 B3B2"/>
    </vehicle>
    <vehicle id="270" depart="300.00">
        <route edges="A0A1 A1A2 A2A3 A3A4 A4B4 B4C4 C4D4 D4D3"/>
    </vehicle>
    <vehicle id="274" depart="304.44">
        <route edges="C3D3 D3D2 D2D1 D1D0 D0C0 C0B0 B0A0 A0A1"/>
    </vehicle>
    <vehicle id="275" depart="305.56">
        <route edges="C1C2 C2C3"/>
    </vehicle>
    <vehicle id="276" depart="306.67">
        <route edges="D2D3 D3D4 D4E4 E4E3 E3D3 D3C3 C3B3"/>
    </vehicle>
    <vehicle id="280" depart="311.11">
        <route edges="D3C3 C3B3 B3B4 B4C4"/>
    </vehicle>
    <vehicle id="281" depart="312.22">
        <route edges="B3B4 B4C4 C4C3 C3B3 B3A3 A3A4"/>
    </vehicle>
    <vehicle id="283" depart="314.44">
        <route edges="C1C0 C0B0 B0B1 B1B2 B2B3 B3B4 B4C4 C4D4 D4D3 D3C3"/>
    </vehicle>
    <vehicle id="284" depart="315.56">
        <route edges="E4D4 D4C4 C4B4 B4A4 A4A3 A3A2 A2A1 A1A0 A0B0 B0C0 C0D0 D0E0 E0E1"/>
    </vehicle>
    <vehicle id="285" depart="316.67">
        <route edges="B2C2 C2D2 D2D1 D1C1"/>
    </vehicle>
    <vehicle id="286" depart="317.78">
        <route edges="D3E3 E3E2 E2E1 E1D1 D1D2 D2E2"/>
    </vehicle>
    <vehicle id="287" depart="318.89">
        <route edges="E4D4 D4C4 C4B4 B4A4 A4A3 A3A2 A2A1 A1A0 A0B0 B0C0 C0D0 D0E0 E0E1 E1E2 E2E3 E3E4"/>
    </vehicle>
    <vehicle id="288" depart="320.00">
        <route edges="A1A2 A2B2 B2C2 C2D2 D2E2"/>
    </vehicle>
    <vehicle id="289" depart="321.11">
        <route edges="B2A2 A2A3 A3A4 A4B4 B4C4 C4D4 D4D3 D3C3"/>
    </vehicle>
    <vehicle id="290" depart="322.22">
        <route edges="C2D2 D2D1 D1D0 D0C0 C0C1 C1D1"/>
    </vehicle>
    <vehicle id="292" depart="324.44">
        <route edges="C3C4 C4D4 D4D3 D3D2 D2D1 D1D0 D0C0 C0B0 B0A0"/>
    </vehicle>
    <vehicle id="293" depart="325.56">
        <route edges="A0A1 A1A2 A2B2 B2C2 C2D2 D2E2 E2E1 E1D1"/>
    </vehicle>
    <vehicle id="294" depart="326.67">
        <route edges="B1C1 C1C0 C0B0 B0B1 B1B2 B2B3"/>
    </vehicle>
    <vehicle id="295" depart="327.78">
        <route edges="E4E3 E3E2 E2D2"/>
    </vehicle>
    <vehicle id="296" depart="328.89">
        <route edges="B3B2 B2A2 A2A3 A3B3 B3C3 C3D3 D3D2 D2D1 D1C1"/>
    </vehicle>
    <vehicle id="298" depart="331.11">
        <route edges="A0A1 A1A2 A2B2 B2C2 C2D2 D2E2"/>
    </vehicle>
    <vehicle id="301" depart="334.44">
        <route edges="E0E1 E1E2 E2E3 E3E4 E4D4 D4C4 C4B4 B4A4 A4A3 A3A2 A2A1 A1A0 A0B0 B0C0 C0D0 D0E0"/>
    </vehicle>
    <vehicle id="302" depart="335.56">
        <route edges="D3E3 E3E2 E2E1 E1E0 E0D0"/>
    </vehicle>
    <vehicle id="303" depart="336.67">
        <route edges="C1D1 D1D0 D0C0 C0B0 B0A0 A0A1"/>
    </vehicle>
    <vehicle id="304" depart="337.78">
        <route edges="A3A4 A4B4 B4C4 C4D4 D4E4 E4E3 E3E2 E2E1 E1D1 D1D2 D2E2"/>
    </vehicle>
    <vehicle id="305" depart="338.89">
        <route edges="D3D4 D4E4 E4E3 E3E2 E2D2 D2D3"/>
    </vehicle>
    <vehicle id="306" depart="340.00">
        <route edges="D3D2 D2C2 C2B2 B2A2"/>
    </vehicle>
    <vehicle id="307" depart="341.11">
        <route edges="B0A0 A0A1 A1A2 A2A3 A3A4 A4B4 B4C4 C4C3 C3B3"/>
    </vehicle>
    <vehicle id="310" depart="344.44">
        <route edges="E2E1 E1D1 D1C1 C1B1 B1B2"/>
    </vehicle>
    <vehicle id="311" depart="345.56">
        <route edges="E2E1 E1E0 E0D0 D0C0 C0B0 B0A0"/>
    </vehicle>
    <vehicle id="313" depart="347.78">
        <route edges="B1A1 A1A2 A2A3 A3A4 A4B4 B4C4 C4D4 D4D3"/>
    </vehicle>
    <vehicle id="315" depart="350.00">
        <route edges="B4C4 C4D4 D4E4 E4E3 E3E2 E2D2"/>
    </vehicle>
    <vehicle id="316" depart="351.11">
        <route edges="A3B3 B3B2 B2A2 A2A3"/>
    </vehicle>
    <vehicle id="317" depart="352.22">
        <route edges="A1A2 A2B2 B2C2 C2D2 D2E2 E2E1 E1D1"/>
    </vehicle>
    <vehicle id="320" depart="355.56">
        <route edges="B2B3 B3C3 C3D3 D3D2 D2D1 D1D0 D0C0"/>
    </vehicle>
    <vehicle id="321" depart="356.67">
        <route edges="E1D1 D1D2 D2E2 E2E1 E1E0 E0D0 D0C0"/>
    </vehicle>
    <vehicle id="322" depart="357.78">
        <route edges="B3A3 A3A4 A4B4 B4C4 C4C3 C3C2 C2C1 C1B1"/>
    </vehicle>
    <vehicle id="323" depart="358.89">
        <route edges="E2D2 D2C2 C2B2 B2A2 A2A3 A3A4"/>
    </vehicle>
    <vehicle id="324" depart="360.00">
        <route edges="B0B1 B1C1 C1C0 C0B0 B0A0 A0A1 A1A2 A2B2 B2B1"/>
    </vehicle>
    <vehicle id="325" depart="361.11">
        <route edges="D0C0 C0B0 B0A0 A0A1 A1B1"/>
    </vehicle>
    <vehicle id="326" depart="362.22">
        <route edges="B4B3 B3A3 A3A4 A4B4 B4C4 C4D4 D4D3 D3D2 D2C2"/>
    </vehicle>
    <vehicle id="328" depart="364.44">
        <route edges="C1B1 B1B2 B2C2 C2C1 C1C0 C0B0 B0A0 A0A1 A1B1"/>
    </vehicle>
    <vehicle id="331" depart="367.78">
        <route edges="B1C1 C1C0 C0B0 B0B1 B1B2 B2C2 C2D2 D2D1 D1C1"/>
    </vehicle>
    <vehicle id="332" depart="368.89">
        <route edges="E2E3 E3E4 E4D4 D4C4 C4B4 B4A4 A4A3 A3A2 A2A1 A1A0 A0B0 B0C0 C0D0 D0E0 E0E1"/>
    </vehicle>
    <vehicle id="334" depart="371.11">
        <route edges="D2D3 D3E3 E3E2 E2E1 E1E0 E0D0 D0C0 C0B0 B0A0 A0A1 A1B1"/>
    </vehicle>
    <vehicle id="338" depart="375.56">
        <route edges="C1B1 B1B2 B2C2 C2C1 C1C0 C0B0 B0B1"/>
    </vehicle>
    <vehicle id="339" depart="376.67">
        <route edges="C4C3 C3C2 C2C1 C1C0 C0B0 B0A0"/>
    </vehicle>
    <vehicle id="344" depart="382.22">
        <route edges="C0B0 B0A0 A0A1"/>
    </vehicle>
    <vehicle id="346" depart="384.44">
        <route edges="D1D2 D2E2 E2E1 E1D1 D1C1 C1B1 B1A1 A1A2 A2B2"/>
    </vehicle>
    <vehicle id="348" depart="386.67">
        <route edges="A1A0 A0B0 B0C0 C0D0 D0E0 E0E1 E1E2 E2E3 E3E4"/>
    </vehicle>
    <vehicle id="349" depart="387.78">
        <route edges="A2B2 B2C2 C2D2 D2D1 D1D0 D0C0"/>
    </vehicle>
    <vehicle id="351" depart="390.00">
        <route edges="B0B1 B1B2 B2C2 C2C1"/>
    </vehicle>
    <vehicle id="353" depart="392.22">
        <route edges="C3C4 C4D4 D4E4 E4E3 E3E2 E2D2 D2D3 D3E3"/>
    </vehicle>
    <vehicle id="354" depart="393.33">
        <route edges="B3C3 C3D3"/>
    </vehicle>
    <vehicle id="355" depart="394.44">
        <route edges="B1A1 A1A2 A2A3 A3B3 B3C3 C3D3 D3E3"/>
    </vehicle>
    <vehicle id="356" depart="395.56">
        <route edges="A3B3 B3C3 C3C2 C2C1 C1B1 B1B2"/>
    </vehicle>
    <vehicle id="357" depart="396.67">
        <route edges="E3E4 E4D4 D4C4 C4B4 B4A4 A4A3 A3A2"/>
    </vehicle>
    <vehicle id="358" depart="397.78">
        <route edges="B1C1 C1C0 C0B0 B0B1 B1B2 B2C2"/>
    </vehicle>
    <vehicle id="360" depart="400.00">
        <route edges="D1D0 D0C0 C0C1 C1C2 C2D2 D2E2"/>
    </vehicle>
    <vehicle id="362" depart="402.22">
        <route edges="E1E0 E0D0 D0C0 C0C1 C1C2 C2D2"/>
    </vehicle>
    <vehicle id="366" depart="406.67">
        <route edges="C3B3 B3B4 B4C4 C4D4 D4E4 E4E3 E3E2 E2D2 D2D3 D3E3"/>
    </vehicle>
    <vehicle id="369" depart="410.00">
        <route edges="D1E1 E1E0 E0D0 D0C0 C0B0 B0A0 A0A1 A1B1 B1B0"/>
    </vehicle>
    <vehicle id="370" depart="411.11">
        <route edges="B3B2 B2A2 A2A3 A3B3 B3C3 C3D3 D3E3 E3E2 E2D2"/>
    </vehicle>
    <vehicle id="372" depart="413.33">
        <route edges="D1D2 D2E2 E2E1 E1D1 D1C1 C1C2 C2D2 D2D1"/>
    </vehicle>
    <vehicle id="373" depart="414.44">
        <route edges="B3B4 B4C4 C4D4 D4E4 E4E3 E3E2 E2E1 E1E0 E0D0"/>
    </vehicle>
    <vehicle id="375" depart="416.67">