<?xml version="1.0" encoding="UTF-8"?>
<!-- generated on 2020-04-14 10:16:15.401828 by $Id$
  options: -n test.net.xml -o 900Vehicles.trips.xml -b 0 -e 1000 -p 1.1111111111111
-->
<routes xmlns:xsi="http://www.w3.org/2001/XMLSchema-instance" xsi:noNamespaceSchemaLocation="http://sumo.dlr.de/xsd/routes_file.xsd">
    <trip id="0" depart="0.00" from="A4A3" to="A2A1"/>
    <trip id="1" depart="1.11" from="A2A1" to="C2B2"/>
    <trip id="2" depart="2.22" from="C2B2" to="C1D1"/>
    <trip id="3" depart="3.33" from="D1D0" to="B2C2"/>
    <trip id="4" depart="4.44" from="E1E0" to="B0C0"/>
    <trip id="5" depart="5.56" from="C3D3" to="D3C3"/>
    <trip id="6" depart="6.67" from="B0A0" to="B1B2"/>
    <trip id="7" depart="7.78" from="C3C4" to="B4C4"/>
    <trip id="8" depart="8.89" from="D1D0" to="C4C3"/>
    <trip id="9" depart="10.00" from="B1B2" to="E2D2"/>
    <trip id="10" depart="11.11" from="D4C4" to="C4B4"/>
    <trip id="11" depart="12.22" from="C4C3" to="B0C0"/>
    <trip id="12" depart="13.33" from="B2C2" to="C1C2"/>
    <trip id="13" depart="14.44" from="D3D4" to="D0D1"/>
    <trip id="14" depart="15.56" from="B4B3" to="D2D1"/>
    <trip id="15" depart="16.67" from="B0A0" to="C3C4"/>
    <trip id="16" depart="17.78" from="C2B2" to="B2B1"/>
    <trip id="17" depart="18.89" from="D1E1" to="A1A2"/>
    <trip id="18" depart="20.00" from="B1B0" to="D2D1"/>
    <trip id="19" depart="21.11" from="E2E3" to="A0B0"/>
    <trip id="20" depart="22.22" from="B3B4" to="E4D4"/>
    <trip id="21" depart="23.33" from="E2D2" to="B1B0"/>
    <trip id="22" depart="24.44" from="C1C0" to="B3C3"/>
    <trip id="23" depart="25.56" from="C4D4" to="A2B2"/>
    <trip id="24" depart="26.67" from="D2C2" to="D0E0"/>
    <trip id="25" depart="27.78" from="B1A1" to="A0B0"/>
    <trip id="26" depart="28.89" from="C0D0" to="C1C0"/>
    <trip id="27" depart="30.00" from="A2B2" to="E1D1"/>
    <trip id="28" depart="31.11" from="D3E3" to="D2D1"/>
    <trip id="29" depart="32.22" from="C2B2" to="C3C2"/>
    <trip id="30" depart="33.33" from="B1B2" to="E4D4"/>
    <trip id="31" depart="34.44" from="C0C1" to="E2E1"/>
    <trip id="32" depart="35.56" from="A1A2" to="B2B3"/>
    <trip id="33" depart="36.67" from="A1A0" to="E3E2"/>
    <trip id="34" depart="37.78" from="D2D3" to="C4C3"/>
    <trip id="35" depart="38.89" from="A1A0" to="B1A1"/>
    <trip id="36" depart="40.00" from="D2E2" to="D0E0"/>
    <trip id="37" depart="41.11" from="E1E2" to="D4E4"/>
    <trip id="38" depart="42.22" from="C2B2" to="B2A2"/>
    <trip id="39" depart="43.33" from="D0D1" to="A2A1"/>
    <trip id="40" depart="44.44" from="B1C1" to="D3D2"/>
    <trip id="41" depart="45.56" from="B0B1" to="D0C0"/>
    <trip id="42" depart="46.67" from="A1B1" to="C4C3"/>
    <trip id="43" depart="47.78" from="B1B2" to="B1C1"/>
    <trip id="44" depart="48.89" from="E2E3" to="E1E0"/>
    <trip id="45" depart="50.00" from="B2A2" to="D0C0"/>
    <trip id="46" depart="51.11" from="E0E1" to="D4E4"/>
    <trip id="47" depart="52.22" from="B4A4" to="B0A0"/>
    <trip id="48" depart="53.33" from="A3A2" to="E2E3"/>
    <trip id="49" depart="54.44" from="B3B4" to="C1C2"/>
    <trip id="50" depart="55.56" from="D4D3" to="D3E3"/>
    <trip id="51" depart="56.67" from="C2C1" to="C4C3"/>
    <trip id="52" depart="57.78" from="A3B3" to="A0A1"/>
    <trip id="53" depart="58.89" from="A0B0" to="C2B2"/>
    <trip id="54" depart="60.00" from="C3C4" to="C0D0"/>
    <trip id="55" depart="61.11" from="E0E1" to="D4D3"/>
    <trip id="56" depart="62.22" from="D2E2" to="D0E0"/>
    <trip id="57" depart="63.33" from="C2C3" to="A2A1"/>
    <trip id="58" depart="64.44" from="E3E2" to="B2C2"/>
    <trip id="59" depart="65.56" from="B2C2" to="B3C3"/>
    <trip id="60" depart="66.67" from="D2E2" to="A2A1"/>
    <trip id="61" depart="67.78" from="D2D3" to="E1D1"/>
    <trip id="62" depart="68.89" from="C4D4" to="B4B3"/>
    <trip id="63" depart="70.00" from="C2D2" to="C4B4"/>
    <trip id="64" depart="71.11" from="A4B4" to="A2B2"/>
    <trip id="65" depart="72.22" from="E0E1" to="B4C4"/>
    <trip id="66" depart="73.33" from="E1D1" to="C2D2"/>
    <trip id="67" depart="74.44" from="D4E4" to="E1D1"/>
    <trip id="68" depart="75.56" from="C2C3" to="D3C3"/>
    <trip id="69" depart="76.67" from="B1C1" to="C3B3"/>
    <trip id="70" depart="77.78" from="C1C0" to="D4D3"/>
    <trip id="71" depart="78.89" from="B2C2" to="A1B1"/>
    <trip id="72" depart="80.00" from="D2E2" to="C2D2"/>
    <trip id="73" depart="81.11" from="B4C4" to="D3E3"/>
    <trip id="74" depart="82.22" from="A1A2" to="A3B3"/>
    <trip id="75" depart="83.33" from="D1E1" to="B1C1"/>
    <trip id="76" depart="84.44" from="D3D4" to="B1A1"/>
    <trip id="77" depart="85.56" from="E2E3" to="B0C0"/>
    <trip id="78" depart="86.67" from="A3A4" to="E4D4"/>
    <trip id="79" depart="87.78" from="E1D1" to="B1A1"/>
    <trip id="80" depart="88.89" from="D1C1" to="E0D0"/>
    <trip id="81" depart="90.00" from="C4B4" to="B2B3"/>
    <trip id="82" depart="91.11" from="C1D1" to="C4D4"/>
    <trip id="83" depart="92.22" from="E0D0" to="B0C0"/>
    <trip id="84" depart="93.33" from="D2D1" to="D2E2"/>
    <trip id="85" depart="94.44" from="D0D1" to="B1B0"/>
    <trip id="86" depart="95.56" from="B1C1" to="E2D2"/>
    <trip id="87" depart="96.67" from="E0E1" to="A1A2"/>
    <trip id="88" depart="97.78" from="B3A3" to="C1D1"/>
    <trip id="89" depart="98.89" from="B2B3" to="B3B4"/>
    <trip id="90" depart="100.00" from="E4E3" to="C2C3"/>
    <trip id="91" depart="101.11" from="A0B0" to="B0A0"/>
    <trip id="92" depart="102.22" from="C1B1" to="B1C1"/>
    <trip id="93" depart="103.33" from="D0C0" to="B1A1"/>
    <trip id="94" depart="104.44" from="D3D2" to="C2C3"/>
    <trip id="95" depart="105.56" from="D3D4" to="C1D1"/>
    <trip id="96" depart="106.67" from="B1A1" to="D0C0"/>
    <trip id="97" depart="107.78" from="D3D2" to="A0A1"/>
    <trip id="98" depart="108.89" from="C4D4" to="E3E2"/>
    <trip id="99" depart="110.00" from="D1D0" to="C3C2"/>
    <trip id="100" depart="111.11" from="B1B2" to="B4C4"/>
    <trip id="101" depart="112.22" from="B4C4" to="D1D2"/>
    <trip id="102" depart="113.33" from="E3E4" to="A3A2"/>
    <trip id="103" depart="114.44" from="B2B3" to="B0B1"/>
    <trip id="104" depart="115.56" from="C2C3" to="C2D2"/>
    <trip id="105" depart="116.67" from="D2E2" to="B2B3"/>
    <trip id="106" depart="117.78" from="B3B4" to="B3B2"/>
    <trip id="107" depart="118.89" from="B3B2" to="A1A0"/>
    <trip id="108" depart="120.00" from="E4E3" to="B2B3"/>
    <trip id="109" depart="121.11" from="C3D3" to="E0D0"/>
    <trip id="110" depart="122.22" from="C2B2" to="C1C2"/>
    <trip id="111" depart="123.33" from="D3E3" to="D0D1"/>
    <trip id="112" depart="124.44" from="C3D3" to="D0C0"/>
    <trip id="113" depart="125.56" from="C4C3" to="B3A3"/>
    <trip id="114" depart="126.67" from="A2A1" to="B0A0"/>
    <trip id="115" depart="127.78" from="D0C0" to="C1C2"/>
    <trip id="116" depart="128.89" from="E2E3" to="B0A0"/>
    <trip id="117" depart="130.00" from="D2E2" to="E1D1"/>
    <trip id="118" depart="131.11" from="B1B0" to="B3B4"/>
    <trip id="119" depart="132.22" from="A4B4" to="D4C4"/>
    <trip id="120" depart="133.33" from="D2D1" to="B0C0"/>
    <trip id="121" depart="134.44" from="E2E1" to="A2A1"/>
    <trip id="122" depart="135.56" from="E4D4" to="A1A0"/>
    <trip id="123" depart="136.67" from="A1A0" to="D4E4"/>
    <trip id="124" depart="137.78" from="C0D0" to="A3A4"/>
    <trip id="125" depart="138.89" from="E0E1" to="E1D1"/>
    <trip id="126" depart="140.00" from="B4C4" to="D3E3"/>
    <trip id="127" depart="141.11" from="B4C4" to="E0E1"/>
    <trip id="128" depart="142.22" from="D4D3" to="E1D1"/>
    <trip id="129" depart="143.33" from="C0D0" to="C3C2"/>
    <trip id="130" depart="144.44" from="E4E3" to="A3B3"/>
    <trip id="131" depart="145.56" from="A4B4" to="C4D4"/>
    <trip id="132" depart="146.67" from="E0D0" to="D0E0"/>
    <trip id="133" depart="147.78" from="E0D0" to="E0E1"/>
    <trip id="134" depart="148.89" from="E1E2" to="A1A2"/>
    <trip id="135" depart="150.00" from="C0C1" to="B2A2"/>
    <trip id="136" depart="151.11" from="D0D1" to="A1A2"/>
    <trip id="137" depart="152.22" from="D0E0" to="B3B2"/>
    <trip id="138" depart="153.33" from="D1D2" to="B2B1"/>
    <trip id="139" depart="154.44" from="B0B1" to="C1D1"/>
    <trip id="140" depart="155.56" from="A1A0" to="C4B4"/>
    <trip id="141" depart="156.67" from="D1C1" to="D2C2"/>
    <trip id="142" depart="157.78" from="C1B1" to="A0A1"/>
    <trip id="143" depart="158.89" from="B2B3" to="E1D1"/>
    <trip id="144" depart="160.00" from="B1C1" to="C4D4"/>
    <trip id="145" depart="161.11" from="C3D3" to="A2A1"/>
    <trip id="146" depart="162.22" from="E1E2" to="E4E3"/>
    <trip id="147" depart="163.33" from="C3C2" to="A1A0"/>
    <trip id="148" depart="164.44" from="D3C3" to="C1B1"/>
    <trip id="149" depart="165.56" from="A2B2" to="C2C3"/>
    <trip id="150" depart="166.67" from="E1E2" to="A2A3"/>
    <trip id="151" depart="167.78" from="D4E4" to="A0B0"/>
    <trip id="152" depart="168.89" from="C1C0" to="A1A2"/>
    <trip id="153" depart="170.00" from="E4E3" to="E3E4"/>
    <trip id="154" depart="171.11" from="E3E2" to="B4C4"/>
    <trip id="155" depart="172.22" from="C4C3" to="B0A0"/>
    <trip id="156" depart="173.33" from="B3B2" to="A1A2"/>
    <trip id="157" depart="174.44" from="B0A0" to="D1E1"/>
    <trip id="158" depart="175.56" from="D0C0" to="C2D2"/>
    <trip id="159" depart="176.67" from="D2D3" to="D3D2"/>
    <trip id="160" depart="177.78" from="A2A1" to="D3C3"/>
    <trip id="161" depart="178.89" from="B3C3" to="C2B2"/>
    <trip id="162" depart="180.00" from="B1B0" to="D2C2"/>
    <trip id="163" depart="181.11" from="C4C3" to="D2D3"/>
    <trip id="164" depart="182.22" from="D1E1" to="B1A1"/>
    <trip id="165" depart="183.33" from="B3A3" to="D2D3"/>
    <trip id="166" depart="184.44" from="B4B3" to="C0D0"/>
    <trip id="167" depart="185.56" from="B4C4" to="B2C2"/>
    <trip id="168" depart="186.67" from="D0E0" to="A1A0"/>
    <trip id="169" depart="187.78" from="D3C3" to="B2C2"/>
    <trip id="170" depart="188.89" from="E4E3" to="D2D1"/>
    <trip id="171" depart="190.00" from="D0E0" to="D2E2"/>
    <trip id="172" depart="191.11" from="A2A1" to="E2E1"/>
    <trip id="173" depart="192.22" from="D2D1" to="C2C3"/>
    <trip id="174" depart="193.33" from="A4A3" to="A2B2"/>
    <trip id="175" depart="194.44" from="C3C2" to="D3D2"/>
    <trip id="176" depart="195.56" from="C4D4" to="C4B4"/>
    <trip id="177" depart="196.67" from="C0D0" to="C0C1"/>
    <trip id="178" depart="197.78" from="E3D3" to="E3E4"/>
    <trip id="179" depart="198.89" from="C2D2" to="B4A4"/>
    <trip id="180" depart="200.00" from="B1B0" to="B4C4"/>
    <trip id="181" depart="201.11" from="B3B2" to="C1D1"/>
    <trip id="182" depart="202.22" from="C3B3" to="A2B2"/>
    <trip id="183" depart="203.33" from="C2D2" to="D1D0"/>
    <trip id="184" depart="204.44" from="C1D1" to="E4E3"/>
    <trip id="185" depart="205.56" from="B3A3" to="B0A0"/>
    <trip id="186" depart="206.67" from="B2B3" to="C3C2"/>
    <trip id="187" depart="207.78" from="C3C2" to="A2A3"/>
    <trip id="188" depart="208.89" from="E0D0" to="A0A1"/>
    <trip id="189" depart="210.00" from="B3B2" to="D3E3"/>
    <trip id="190" depart="211.11" from="A1A0" to="B1B0"/>
    <trip id="191" depart="212.22" from="E1E0" to="C3C4"/>
    <trip id="192" depart="213.33" from="C2B2" to="A3B3"/>
    <trip id="193" depart="214.44" from="E3D3" to="A1A0"/>
    <trip id="194" depart="215.56" from="C3B3" to="D2E2"/>
    <trip id="195" depart="216.67" from="D3D4" to="D3C3"/>
    <trip id="196" depart="217.78" from="D0D1" to="B1B2"/>
    <trip id="197" depart="218.89" from="D0D1" to="E3E4"/>
    <trip id="198" depart="220.00" from="B3B4" to="B3C3"/>
    <trip id="199" depart="221.11" from="C2B2" to="B2B1"/>
    <trip id="200" depart="222.22" from="B3B2" to="A2A1"/>
    <trip id="201" depart="223.33" from="E1D1" to="D3E3"/>
    <trip id="202" depart="224.44" from="E2E1" to="B1A1"/>
    <trip id="203" depart="225.56" from="B3B4" to="B3C3"/>
    <trip id="204" depart="226.67" from="A3A4" to="E4D4"/>
    <trip id="205" depart="227.78" from="A3B3" to="B1A1"/>
    <trip id="206" depart="228.89" from="B2B3" to="B3A3"/>
    <trip id="207" depart="230.00" from="E1E2" to="B3B2"/>
    <trip id="208" depart="231.11" from="B2B1" to="A1B1"/>
    <trip id="209" depart="232.22" from="E3D3" to="C1C2"/>
    <trip id="210" depart="233.33" from="B3C3" to="A1B1"/>
    <trip id="211" depart="234.44" from="E2E1" to="D4D3"/>
    <trip id="212" depart="235.56" from="A2A1" to="D1D0"/>
    <trip id="213" depart="236.67" from="E4E3" to="A4A3"/>
    <trip id="214" depart="237.78" from="A3A4" to="D1E1"/>
    <trip id="215" depart="238.89" from="D1E1" to="B4C4"/>
    <trip id="216" depart="240.00" from="A2B2" to="D1E1"/>
    <trip id="217" depart="241.11" from="C0B0" to="A2B2"/>
    <trip id="218" depart="242.22" from="D1C1" to="A2B2"/>
    <trip id="219" depart="243.33" from="D2C2" to="E1E2"/>
    <trip id="220" depart="244.44" from="B3B4" to="C0B0"/>
    <trip id="221" depart="245.56" from="A1B1" to="C0C1"/>
    <trip id="222" depart="246.67" from="D3C3" to="B3A3"/>
    <trip id="223" depart="247.78" from="E2E3" to="E0D0"/>
    <trip id="224" depart="248.89" from="B2B1" to="B1C1"/>
    <trip id="225" depart="250.00" from="C1C0" to="D4C4"/>
    <trip id="226" depart="251.11" from="D2C2" to="B3B4"/>
    <trip id="227" depart="252.22" from="C1C2" to="B3B2"/>
    <trip id="228" depart="253.33" from="E4E3" to="C3C2"/>
    <trip id="229" depart="254.44" from="D1E1" to="D2C2"/>
    <trip id="230" depart="255.56" from="D1C1" to="A1B1"/>
    <trip id="231" depart="256.67" from="D2D1" to="D0C0"/>
    <trip id="232" depart="257.78" from="C2C3" to="B1A1"/>
    <trip id="233" depart="258.89" from="D1C1" to="E1E2"/>
    <trip id="234" depart="260.00" from="D0D1" to="D4C4"/>
    <trip id="235" depart="261.11" from="E0D0" to="E4E3"/>
    <trip id="236" depart="262.22" from="E4E3" to="C1C2"/>
    <trip id="237" depart="263.33" from="C3C2" to="E1D1"/>
    <trip id="238" depart="264.44" from="A2A3" to="D1C1"/>
    <trip id="239" depart="265.56" from="A2A3" to="E2D2"/>
    <trip id="240" depart="266.67" from="B2C2" to="D1E1"/>
    <trip id="241" depart="267.78" from="C3B3" to="D3D2"/>
    <trip id="242" depart="268.89" from="C2C3" to="C0C1"/>
    <trip id="243" depart="270.00" from="C2C3" to="C4B4"/>
    <trip id="244" depart="271.11" from="C0D0" to="A3A2"/>
    <trip id="245" depart="272.22" from="C3D3" to="B1B0"/>
    <trip id="246" depart="273.33" from="E0D0" to="B4C4"/>
    <trip id="247" depart="274.44" from="C2D2" to="C3C4"/>
    <trip id="248" depart="275.56" from="C3C2" to="C4C3"/>
    <trip id="249" depart="276.67" from="D1D0" to="A4B4"/>
    <trip id="250" depart="277.78" from="B3B4" to="C2C3"/>
    <trip id="251" depart="278.89" from="D0E0" to="D3D2"/>
    <trip id="252" depart="280.00" from="A1A2" to="C3D3"/>
    <trip id="253" depart="281.11" from="D3C3" to="D1D0"/>
    <trip id="254" depart="282.22" from="C3C2" to="D3C3"/>
    <trip id="255" depart="283.33" from="B2B3" to="A3B3"/>
    <trip id="256" depart="284.44" from="C0C1" to="D2D3"/>
    <trip id="257" depart="285.56" from="A2B2" to="B1B0"/>
    <trip id="258" depart="286.67" from="D4E4" to="E4D4"/>
    <trip id="259" depart="287.78" from="D0D1" to="E0E1"/>
    <trip id="260" depart="288.89" from="C1C2" to="A3A4"/>
    <trip id="261" depart="290.00" from="B1A1" to="D3D2"/>
    <trip id="262" depart="291.11" from="C2B2" to="E1E2"/>
    <trip id="263" depart="292.22" from="A3B3" to="C1C0"/>
    <trip id="264" depart="293.33" from="C1C0" to="A3B3"/>
    <trip id="265" depart="294.44" from="D0D1" to="D1D2"/>
    <trip id="266" depart="295.56" from="B2A2" to="D4E4"/>
    <trip id="267" depart="296.67" from="D3C3" to="A3A2"/>
    <trip id="268" depart="297.78" from="E1E0" to="A0A1"/>
    <trip id="269" depart="298.89" from="E1E0" to="B3B2"/>
    <trip id="270" depart="300.00" from="A0A1" to="D4D3"/>
    <trip id="271" depart="301.11" from="E2E3" to="B2C2"/>
    <trip id="272" depart="302.22" from="B2B1" to="C4B4"/>
    <trip id="273" depart="303.33" from="E0E1" to="D3D4"/>
    <trip id="274" depart="304.44" from="C3D3" to="A0A1"/>
    <trip id="275" depart="305.56" from="C1C2" to="C2C3"/>
    <trip id="276" depart="306.67" from="D2D3" to="C3B3"/>
    <trip id="277" depart="307.78" from="E3D3" to="E2E3"/>
    <trip id="278" depart="308.89" from="D4C4" to="A2B2"/>
    <trip id="279" depart="310.00" from="E2E3" to="A4B4"/>
    <trip id="280" depart="311.11" from="D3C3" to="B4C4"/>
    <trip id="281" depart="312.22" from="B3B4" to="A3A4"/>
    <trip id="282" depart="313.33" from="B0C0" to="D3C3"/>
    <trip id="283" depart="314.44" from="C1C0" to="D3C3"/>
    <trip id="284" depart="315.56" from="E4D4" to="E0E1"/>
    <trip id="285" depart="316.67" from="B2C2" to="D1C1"/>
    <trip id="286" depart="317.78" from="D3E3" to="D2E2"/>
    <trip id="287" depart="318.89" from="E4D4" to="E3E4"/>
    <trip id="288" depart="320.00" from="A1A2" to="D2E2"/>
    <trip id="289" depart="321.11" from="B2A2" to="D3C3"/>
    <trip id="290" depart="322.22" from="C2D2" to="C1D1"/>
    <trip id="291" depart="323.33" from="E2E3" to="D1E1"/>
    <trip id="292" depart="324.44" from="C3C4" to="B0A0"/>
    <trip id="293" depart="325.56" from="A0A1" to="E1D1"/>
    <trip id="294" depart="326.67" from="B1C1" to="B2B3"/>
    <trip id="295" depart="327.78" from="E4E3" to="E2D2"/>
    <trip id="296" depart="328.89" from="B3B2" to="D1C1"/>
    <trip id="297" depart="330.00" from="C4D4" to="E0E1"/>
    <trip id="298" depart="331.11" from="A0A1" to="D2E2"/>
    <trip id="299" depart="332.22" from="D4C4" to="A3B3"/>
    <trip id="300" depart="333.33" from="D1D0" to="E1E2"/>
    <trip id="301" depart="334.44" from="E0E1" to="D0E0"/>
    <trip id="302" depart="335.56" from="D3E3" to="E0D0"/>
    <trip id="303" depart="336.67" from="C1D1" to="A0A1"/>
    <trip id="304" depart="337.78" from="A3A4" to="D2E2"/>
    <trip id="305" depart="338.89" from="D3D4" to="D2D3"/>
    <trip id="306" depart="340.00" from="D3D2" to="B2A2"/>
    <trip id="307" depart="341.11" from="B0A0" to="C3B3"/>
    <trip id="308" depart="342.22" from="A0A1" to="D0E0"/>
    <trip id="309" depart="343.33" from="B3C3" to="A0B0"/>
    <trip id="310" depart="344.44" from="E2E1" to="B1B2"/>
    <trip id="311" depart="345.56" from="E2E1" to="B0A0"/>
    <trip id="312" depart="346.67" from="C0D0" to="E0D0"/>
    <trip id="313" depart="347.78" from="B1A1" to="D4D3"/>
    <trip id="314" depart="348.89" from="A3A2" to="A2B2"/>
    <trip id="315" depart="350.00" from="B4C4" to="E2D2"/>
    <trip id="316" depart="351.11" from="A3B3" to="A2A3"/>
    <trip id="317" depart="352.22" from="A1A2" to="E1D1"/>
    <trip id="318" depart="353.33" from="B0B1" to="C0D0"/>
    <trip id="319" depart="354.44" from="C3C2" to="E1E2"/>
    <trip id="320" depart="355.56" from="B2B3" to="D0C0"/>
    <trip id="321" depart="356.67" from="E1D1" to="D0C0"/>
    <trip id="322" depart="357.78" from="B3A3" to="C1B1"/>
    <trip id="323" depart="358.89" from="E2D2" to="A3A4"/>
    <trip id="324" depart="360.00" from="B0B1" to="B2B1"/>
    <trip id="325" depart="361.11" from="D0C0" to="A1B1"/>
    <trip id="326" depart="362.22" from="B4B3" to="D2C2"/>
    <trip id="327" depart="363.33" from="B2A2" to="B4A4"/>
    <trip id="328" depart="364.44" from="C1B1" to="A1B1"/>
    <trip id="329" depart="365.56" from="E2E3" to="D3C3"/>
    <trip id="330" depart="366.67" from="B0C0" to="C1B1"/>
    <trip id="331" depart="367.78" from="B1C1" to="D1C1"/>
    <trip id="332" depart="368.89" from="E2E3" to="E0E1"/>
    <trip id="333" depart="370.00" from="D4C4" to="E3D3"/>
    <trip id="334" depart="371.11" from="D2D3" to="A1B1"/>
    <trip id="335" depart="372.22" from="D2E2" to="A3A2"/>
    <trip id="336" depart="373.33" from="A3A2" to="B2B3"/>
    <trip id="337" depart="374.44" from="D0E0" to="B3B2"/>
    <trip id="338" depart="375.56" from="C1B1" to="B0B1"/>
    <trip id="339" depart="376.67" from="C4C3" to="B0A0"/>
    <trip id="340" depart="377.78" from="D0E0" to="C2C3"/>
    <trip id="341" depart="378.89" from="D2D3" to="B0C0"/>
    <trip id="342" depart="380.00" from="B0C0" to="D4D3"/>
    <trip id="343" depart="381.11" from="E4D4" to="A2A3"/>
    <trip id="344" depart="382.22" from="C0B0" to="A0A1"/>
    <trip id="345" depart="383.33" from="E4D4" to="E0D0"/>
    <trip id="346" depart="384.44" from="D1D2" to="A2B2"/>
    <trip id="347" depart="385.56" from="B0C0" to="C1B1"/>
    <trip id="348" depart="386.67" from="A1A0" to="E3E4"/>
    <trip id="349" depart="387.78" from="A2B2" to="D0C0"/>
    <trip id="350" depart="388.89" from="E0D0" to="E1E2"/>
    <trip id="351" depart="390.00" from="B0B1" to="C2C1"/>
    <trip id="352" depart="391.11" from="D0E0" to="D4E4"/>
    <trip id="353" depart="392.22" from="C3C4" to="D3E3"/>
    <trip id="354" depart="393.33" from="B3C3" to="C3D3"/>
    <trip id="355" depart="394.44" from="B1A1" to="D3E3"/>
    <trip id="356" depart="395.56" from="A3B3" to="B1B2"/>
    <trip id="357" depart="396.67" from="E3E4" to="A3A2"/>
    <trip id="358" depart="397.78" from="B1C1" to="B2C2"/>
    <trip id="359" depart="398.89" from="A4A3" to="C2C1"/>
    <trip id="360" depart="400.00" from="D1D0" to="D2E2"/>
    <trip id="361" depart="401.11" from="A4B4" to="E2E3"/>
    <trip id="362" depart="402.22" from="E1E0" to="C2D2"/>
    <trip id="363" depart="403.33" from="D1D0" to="E1E2"/>
    <trip id="364" depart="404.44" from="B2A2" to="E0E1"/>
    <trip id="365" depart="405.56" from="D1D0" to="C4B4"/>
    <trip id="366" depart="406.67" from="C3B3" to="D3E3"/>
    <trip id="367" depart="407.78" from="A1B1" to="A1A0"/>
    <trip id="368" depart="408.89" from="B4C4" to="A3A2"/>
    <trip id="369" depart="410.00" from="D1E1" to="B1B0"/>
    <trip id="370" depart="411.11" from="B3B2" to="E2D2"/>
    <trip id="371" depart="412.22" from="C0D0" to="D2C2"/>
    <trip id="372" depart="413.33" from="D1D2" to="D2D1"/>
    <trip id="373" depart="414.44" from="B3B4" to="E0D0"/>
    <trip id="374" depart="415.56" from="A0B0" to="B3B4"/>
    <trip id="375" depart="416.67" from="D3D4" to="B3B2"/>
    <trip id="376" depart="417.78" from="A1A0" to="C3C2"/>
    <trip id="377" depart="418.89" from="C4B4" to="A2A1"/>
    <trip id="378" depart="420.00" from="B4A4" to="B4C4"/>
    <trip id="379" depart="421.11" from="B3B4" to="D0E0"/>
    <trip id="380" depart="422.22" from="A0B0" to="C1B1"/>
    <trip id="381" depart="423.33" from="E4E3" to="B0C0"/>
    <trip id="382" depart="424.44" from="B1C1" to="D4E4"/>
    <trip id="383" depart="425.56" from="C3D3" to="A3A2"/>
    <trip id="384" depart="426.67" from="E1D1" to="C3C2"/>
    <trip id="385" depart="427.78" from="C3D3" to="B2C2"/>
    <trip id="386" depart="428.89" from="B3C3" to="C3B3"/>
    <trip id="387" depart="430.00" from="A3A4" to="B4A4"/>
    <trip id="388" depart="431.11" from="C2B2" to="B3B2"/>
    <trip id="389" depart="432.22" from="B2A2" to="E3E2"/>
    <trip id="390" depart="433.33" from="D0C0" to="A1A0"/>
    <trip id="391" depart="434.44" from="D2D1" to="E4D4"/>
    <trip id="392" depart="435.56" from="A4B4" to="C0C1"/>
    <trip id="393" depart="436.67" from="A0A1" to="C1B1"/>
    <trip id="394" depart="437.78" from="C1D1" to="B3B4"/>
    <trip id="395" depart="438.89" from="A1B1" to="A3B3"/>
    <trip id="396" depart="440.00" from="E0E1" to="C4C3"/>
    <trip id="397" depart="441.11" from="C0C1" to="B4C4"/>
    <trip id="398" depart="442.22" from="B3C3" to="E2D2"/>
    <trip id="399" depart="443.33" from="C1D1" to="B1B2"/>
    <trip id="400" depart="444.44" from="E4E3" to="C1B1"/>
    <trip id="401" depart="445.56" from="A1A2" to="C2C3"/>
    <trip id="402" depart="446.67" from="D4E4" to="B3B4"/>
    <trip id="403" depart="447.78" from="E3E2" to="B0B1"/>
    <trip id="404" depart="448.89" from="A1B1" to="A3A2"/>
    <trip id="405" depart="450.00" from="D0D1" to="C3C4"/>
    <trip id="406" depart="451.11" from="C4D4" to="E2D2"/>
    <trip id="407" depart="452.22" from="D4C4" to="C3C4"/>
    <trip id="408" depart="453.33" from="C2C1" to="D2C2"/>
    <trip id="409" depart="454.44" from="B0C0" to="A1A2"/>
    <trip id="410" depart="455.56" from="C1C0" to="E2E1"/>
    <trip id="411" depart="456.67" from="A0A1" to="C3B3"/>
    <trip id="412" depart="457.78" from="C2D2" to="D1D2"/>
    <trip id="413" depart="458.89" from="B4B3" to="D0C0"/>
    <trip id="414" depart="460.00" from="C2C3" to="A2B2"/>
    <trip id="415" depart="461.11" from="E2E1" to="E4E3"/>
    <trip id="416" depart="462.22" from="B1C1" to="C4D4"/>
    <trip id="417" depart="463.33" from="B3C3" to="C3D3"/>
    <trip id="418" depart="464.44" from="D0D1" to="E0D0"/>
    <trip id="419" depart="465.56" from="B4A4" to="D1D2"/>
    <trip id="420" depart="466.67" from="A1A2" to="D4D3"/>
    <trip id="421" depart="467.78" from="B0A0" to="E2D2"/>
    <trip id="422" depart="468.89" from="B2B3" to="D2E2"/>
    <trip id="423" depart="470.00" from="B1A1" to="A2A3"/>
    <trip id="424" depart="471.11" from="E1E2" to="C3D3"/>
    <trip id="425" depart="472.22" from="B4C4" to="B2C2"/>
    <trip id="426" depart="473.33" from="A4A3" to="A3B3"/>
    <trip id="427" depart="474.44" from="C4C3" to="D4E4"/>
    <trip id="428" depart="475.56" from="E1E0" to="B2A2"/>
    <trip id="429" depart="476.67" from="A4B4" to="E1E0"/>
    <trip id="430" depart="477.78" from="D1D2" to="E3E2"/>
    <trip id="431" depart="478.89" from="A1B1" to="D2D3"/>
    <trip id="432" depart="480.00" from="A2A3" to="E2D2"/>
    <trip id="433" depart="481.11" from="C2B2" to="B2C2"/>
    <trip id="434" depart="482.22" from="D1D2" to="B3B2"/>
    <trip id="435" depart="483.33" from="B1C1" to="E2D2"/>
    <trip id="436" depart="484.44" from="E2D2" to="B4B3"/>
    <trip id="437" depart="485.56" from="C2C1" to="D2D1"/>
    <trip id="438" depart="486.67" from="B4C4" to="B0A0"/>
    <trip id="439" depart="487.78" from="C0B0" to="B3A3"/>
    <trip id="440" depart="488.89" from="E3E2" to="E3D3"/>
    <trip id="441" depart="490.00" from="C3B3" to="C0B0"/>
    <trip id="442" depart="491.11" from="E4E3" to="E3D3"/>
    <trip id="443" depart="492.22" from="D2C2" to="D3D2"/>
    <trip id="444" depart="493.33" from="B3A3" to="B2C2"/>
    <trip id="445" depart="494.44" from="A3A4" to="C4B4"/>
    <trip id="446" depart="495.56" from="B0A0" to="B2B3"/>
    <trip id="447" depart="496.67" from="A4A3" to="E1E2"/>
    <trip id="448" depart="497.78" from="A1A0" to="C0C1"/>
    <trip id="449" depart="498.89" from="B2C2" to="D2D1"/>
    <trip id="450" depart="500.00" from="C2C3" to="D4D3"/>
    <trip id="451" depart="501.11" from="E3E4" to="A3B3"/>
    <trip id="452" depart="502.22" from="C3C4" to="C3B3"/>
    <trip id="453" depart="503.33" from="A2A3" to="C0B0"/>
    <trip id="454" depart="504.44" from="C2C3" to="C4C3"/>
    <trip id="455" depart="505.56" from="E2E3" to="B0B1"/>
    <trip id="456" depart="506.67" from="B4A4" to="E4D4"/>
    <trip id="457" depart="507.78" from="A2B2" to="D1D0"/>
    <trip id="458" depart="508.89" from="A3A2" to="D1C1"/>
    <trip id="459" depart="510.00" from="C1B1" to="C1D1"/>
    <trip id="460" depart="511.11" from="B3B4" to="A4A3"/>
    <trip id="461" depart="512.22" from="B2A2" to="E0D0"/>
    <trip id="462" depart="513.33" from="E2E1" to="A3A2"/>
    <trip id="463" depart="514.44" from="C3C4" to="D1E1"/>
    <trip id="464" depart="515.56" from="B0C0" to="B3C3"/>
    <trip id="465" depart="516.67" from="C4D4" to="B3B2"/>
    <trip id="466" depart="517.78" from="B2A2" to="B1B0"/>
    <trip id="467" depart="518.89" from="E0D0" to="D1D2"/>
    <trip id="468" depart="520.00" from="D2D3" to="C4D4"/>
    <trip id="469" depart="521.11" from="D4C4" to="D2C2"/>
    <trip id="470" depart="522.22" from="A3B3" to="C4C3"/>
    <trip id="471" depart="523.33" from="E4D4" to="A2A3"/>
    <trip id="472" depart="524.44" from="E1D1" to="D1D0"/>
    <trip id="473" depart="525.56" from="D0D1" to="E2E3"/>
    <trip id="474" depart="526.67" from="D0D1" to="E2E3"/>
    <trip id="475" depart="527.78" from="D3C3" to="A1A2"/>
    <trip id="476" depart="528.89" from="C1C2" to="B1B0"/>
    <trip id="477" depart="530.00" from="B3B4" to="B2B3"/>
    <trip id="478" depart="531.11" from="D4D3" to="C0D0"/>
    <trip id="479" depart="532.22" from="C2D2" to="D4D3"/>
    <trip id="480" depart="533.33" from="E1E0" to="D3D2"/>
    <trip id="481" depart="534.44" from="C4B4" to="D3D4"/>
    <trip id="482" depart="535.56" from="A2A3" to="E1D1"/>
    <trip id="483" depart="536.67" from="C3B3" to="B0A0"/>
    <trip id="484" depart="537.78" from="D0D1" to="D1C1"/>
    <trip id="485" depart="538.89" from="A0A1" to="D2E2"/>
    <trip id="486" depart="540.00" from="B1B2" to="E0E1"/>
    <trip id="487" depart="541.11" from="A1A2" to="D1C1"/>
    <trip id="488" depart="542.22" from="A3A2" to="B3C3"/>
    <trip id="489" depart="543.33" from="B2B1" to="E4D4"/>
    <trip id="490" depart="544.44" from="C1B1" to="A1A2"/>
    <trip id="491" depart="545.56" from="A3A2" to="A3B3"/>
    <trip id="492" depart="546.67" from="B3B2" to="D3E3"/>
    <trip id="493" depart="547.78" from="A3B3" to="B1B2"/>
    <trip id="494" depart="548.89" from="B3C3" to="C1C2"/>
    <trip id="495" depart="550.00" from="C2B2" to="A0A1"/>
    <trip id="496" depart="551.11" from="B3B4" to="D0E0"/>
    <trip id="497" depart="552.22" from="B4C4" to="C1C0"/>
    <trip id="498" depart="553.33" from="C1C0" to="A2A1"/>
    <trip id="499" depart="554.44" from="A1A0" to="C3C4"/>
    <trip id="500" depart="555.56" from="C0D0" to="C4B4"/>
    <trip id="501" depart="556.67" from="B4B3" to="B4B3"/>
    <trip id="502" depart="557.78" from="B2B3" to="B4B3"/>
    <trip id="503" depart="558.89" from="C4D4" to="D0D1"/>
    <trip id="504" depart="560.00" from="A3A2" to="D0E0"/>
    <trip id="505" depart="561.11" from="B4A4" to="D0E0"/>