<?xml version="1.0" encoding="UTF-8"?>

<!-- generated on Tue 18 Feb 17:10:06 2020 by Eclipse SUMO netedit Version 1.2.0
<configuration xmlns:xsi="http://www.w3.org/2001/XMLSchema-instance" xsi:noNamespaceSchemaLocation="http://sumo.dlr.de/xsd/netconvertConfiguration.xsd">

    <input>
        <sumo-net-file value="/Users/jamie/Documents/University/ThirdYear/Project/GitHub/AdaptiveRoadRules/ARR1/Concept2(Workable)/PreFullImplementationTests/CorrectLaneMigration/SUMO/CorrectLaneMigration.net.xml"/>
    </input>

    <output>
        <output-file value="/Users/jamie/Documents/University/ThirdYear/Project/GitHub/AdaptiveRoadRules/ARR1/Concept2(Workable)/PreFullImplementationTests/CorrectLaneMigration/SUMO/CorrectLaneMigration.net.xml"/>
    </output>

    <processing>
        <geometry.max-grade.fix value="false"/>
        <offset.disable-normalization value="true"/>
        <lefthand value="false"/>
    </processing>

    <junctions>
        <no-turnarounds value="true"/>
        <junctions.corner-detail value="5"/>
        <junctions.limit-turn-speed value="5.5"/>
        <rectangular-lane-cut value="false"/>
    </junctions>

    <pedestrian>
        <walkingareas value="false"/>
    </pedestrian>

</configuration>
-->

<net version="1.1" junctionCornerDetail="5" limitTurnSpeed="5.50" xmlns:xsi="http://www.w3.org/2001/XMLSchema-instance" xsi:noNamespaceSchemaLocation="http://sumo.dlr.de/xsd/net_file.xsd">

    <location netOffset="0.00,0.00" convBoundary="0.00,0.00,200.00,200.00" origBoundary="0.00,0.00,200.00,200.00" projParameter="!"/>

    <edge id=":A0_0" function="internal">
        <lane id=":A0_0_0" index="0" disallow="custom2" speed="7.66" length="12.90" shape="-3.20,4.80 -2.70,1.30 -1.20,-1.20 1.30,-2.70 4.80,-3.20"/>
    </edge>
    <edge id=":A0_1" function="internal">
        <lane id=":A0_1_0" index="0" disallow="custom2" speed="3.90" length="2.58" shape="4.80,3.20 4.10,3.30 3.60,3.60 3.30,4.10 3.20,4.80"/>
    </edge>
    <edge id=":A1_0" function="internal">
        <lane id=":A1_0_0" index="0" disallow="custom2" speed="13.89" length="17.60" shape="-3.20,108.80 -3.20,91.20"/>
    </edge>
    <edge id=":A1_1" function="internal">
        <lane id=":A1_1_0" index="0" disallow="custom2" speed="6.51" length="9.03" shape="8.80,103.20 6.35,103.55 4.60,104.60 3.55,106.35 3.20,108.80"/>
    </edge>
    <edge id=":A1_2" function="internal">
        <lane id=":A1_2_0" index="0" disallow="custom2" speed="6.51" length="9.03" shape="3.20,91.20 3.55,93.65 4.60,95.40 6.35,96.45 8.80,96.80"/>
    </edge>
    <edge id=":A1_3" function="internal">
        <lane id=":A1_3_0" index="0" disallow="custom2" speed="13.89" length="17.60" shape="3.20,91.20 3.20,108.80"/>
    </edge>
    <edge id=":A2_0" function="internal">
        <lane id=":A2_0_0" index="0" disallow="custom2" speed="7.66" length="12.90" shape="4.80,203.20 1.30,202.70 -1.20,201.20 -2.70,198.70 -3.20,195.20"/>
    </edge>
    <edge id=":A2_1" function="internal">
        <lane id=":A2_1_0" index="0" disallow="custom2" speed="3.90" length="2.58" shape="3.20,195.20 3.30,195.90 3.60,196.40 4.10,196.70 4.80,196.80"/>
    </edge>
    <edge id=":B0_0" function="internal">
        <lane id=":B0_0_0" index="0" disallow="custom2" speed="6.51" length="9.03" shape="96.80,8.80 96.45,6.35 95.40,4.60 93.65,3.55 91.20,3.20"/>
    </edge>
    <edge id=":B0_1" function="internal">
        <lane id=":B0_1_0" index="0" disallow="custom2" speed="6.51" length="9.03" shape="108.80,3.20 106.35,3.55 104.60,4.60 103.55,6.35 103.20,8.80"/>
    </edge>
    <edge id=":B0_2" function="internal">
        <lane id=":B0_2_0" index="0" disallow="custom2" speed="13.89" length="17.60" shape="108.80,3.20 91.20,3.20"/>
    </edge>
    <edge id=":B0_3" function="internal">
        <lane id=":B0_3_0" index="0" disallow="custom2" speed="13.89" length="17.60" shape="91.20,-3.20 108.80,-3.20"/>
    </edge>
    <edge id=":B1_0" function="internal">
        <lane id=":B1_0_0" index="0" disallow="custom2" speed="6.51" length="9.03" shape="96.80,108.80 96.45,106.35 95.40,104.60 93.65,103.55 91.20,103.20"/>
    </edge>
    <edge id=":B1_1" function="internal">
        <lane id=":B1_1_0" index="0" disallow="custom2" speed="13.89" length="17.60" shape="96.80,108.80 96.80,91.20"/>
    </edge>
    <edge id=":B1_2" function="internal">
        <lane id=":B1_2_0" index="0" disallow="custom2" speed="6.51" length="9.03" shape="108.80,103.20 106.35,103.55 104.60,104.60 103.55,106.35 103.20,108.80"/>
    </edge>
    <edge id=":B1_3" function="internal">
        <lane id=":B1_3_0" index="0" disallow="custom2" speed="13.89" length="17.60" shape="108.80,103.20 91.20,103.20"/>
    </edge>
    <edge id=":B1_4" function="internal">
        <lane id=":B1_4_0" index="0" disallow="custom2" speed="6.51" length="9.03" shape="103.20,91.20 103.55,93.65 104.60,95.40 106.35,96.45 108.80,96.80"/>
    </edge>
    <edge id=":B1_5" function="internal">
        <lane id=":B1_5_0" index="0" disallow="custom2" speed="13.89" length="17.60" shape="103.20,91.20 103.20,108.80"/>
    </edge>
    <edge id=":B1_6" function="internal">
        <lane id=":B1_6_0" index="0" disallow="custom2" speed="6.51" length="9.03" shape="91.20,96.80 93.65,96.45 95.40,95.40 96.45,93.65 96.80,91.20"/>
    </edge>
    <edge id=":B1_7" function="internal">
        <lane id=":B1_7_0" index="0" disallow="custom2" speed="13.89" length="17.60" shape="91.20,96.80 108.80,96.80"/>
    </edge>
    <edge id=":B2_0" function="internal">
        <lane id=":B2_0_0" index="0" disallow="custom2" speed="13.89" length="17.60" shape="108.80,203.20 91.20,203.20"/>
    </edge>
    <edge id=":B2_1" function="internal">
        <lane id=":B2_1_0" index="0" disallow="custom2" speed="6.51" length="9.03" shape="103.20,191.20 103.55,193.65 104.60,195.40 106.35,196.45 108.80,196.80"/>
    </edge>
    <edge id=":B2_2" function="internal">
        <lane id=":B2_2_0" index="0" disallow="custom2" speed="6.51" length="9.03" shape="91.20,196.80 93.65,196.45 95.40,195.40 96.45,193.65 96.80,191.20"/>
    </edge>
    <edge id=":B2_3" function="internal">
        <lane id=":B2_3_0" index="0" disallow="custom2" speed="13.89" length="17.60" shape="91.20,196.80 108.80,196.80"/>
    </edge>
    <edge id=":C0_0" function="internal">
        <lane id=":C0_0_0" index="0" disallow="custom2" speed="3.90" length="2.58" shape="196.80,4.80 196.70,4.10 196.40,3.60 195.90,3.30 195.20,3.20"/>
    </edge>
    <edge id=":C0_1" function="internal">
        <lane id=":C0_1_0" index="0" disallow="custom2" speed="7.66" length="12.90" shape="195.20,-3.20 198.70,-2.70 201.20,-1.20 202.70,1.30 203.20,4.80"/>
    </edge>
    <edge id=":C1_0" function="internal">
        <lane id=":C1_0_0" index="0" disallow="custom2" speed="6.51" length="9.03" shape="196.80,108.80 196.45,106.35 195.40,104.60 193.65,103.55 191.20,103.20"/>
    </edge>
    <edge id=":C1_1" function="internal">
        <lane id=":C1_1_0" index="0" disallow="custom2" speed="13.89" length="17.60" shape="196.80,108.80 196.80,91.20"/>
    </edge>
    <edge id=":C1_2" function="internal">
        <lane id=":C1_2_0" index="0" disallow="custom2" speed="13.89" length="17.60" shape="203.20,91.20 203.20,108.80"/>
    </edge>
    <edge id=":C1_3" function="internal">
        <lane id=":C1_3_0" index="0" disallow="custom2" speed="6.51" length="9.03" shape="191.20,96.80 193.65,96.45 195.40,95.40 196.45,93.65 196.80,91.20"/>
    </edge>
    <edge id=":C2_0" function="internal">
        <lane id=":C2_0_0" index="0" disallow="custom2" speed="7.66" length="12.90" shape="203.20,195.20 202.70,198.70 201.20,201.20 198.70,202.70 195.20,203.20"/>
    </edge>
    <edge id=":C2_1" function="internal">
        <lane id=":C2_1_0" index="0" disallow="custom2" speed="3.90" length="2.58" shape="195.20,196.80 195.90,196.70 196.40,196.40 196.70,195.90 196.80,195.20"/>
    </edge>

    <edge id="A0A1" from="A0" to="A1" priority="-1">
        <lane id="A0A1_0" index="0" disallow="custom2" speed="13.89" length="86.40" shape="3.20,4.80 3.20,91.20"/>
        <lane id="A0A1_1" index="1" allow="custom2" speed="13.89" length="86.40" width="1.60" shape="0.80,4.80 0.80,91.20"/>
    </edge>
    <edge id="A0B0" from="A0" to="B0" priority="-1">
        <lane id="A0B0_0" index="0" disallow="custom2" speed="13.89" length="86.40" shape="4.80,-3.20 91.20,-3.20"/>
        <lane id="A0B0_1" index="1" allow="custom2" speed="13.89" length="86.40" width="1.60" shape="4.80,-0.80 91.20,-0.80"/>
    </edge>
    <edge id="A1A0" from="A1" to="A0" priority="-1">
        <lane id="A1A0_0" index="0" disallow="custom2" speed="13.89" length="86.40" shape="-3.20,91.20 -3.20,4.80"/>
        <lane id="A1A0_1" index="1" allow="custom2" speed="13.89" length="86.40" width="1.60" shape="-0.80,91.20 -0.80,4.80"/>
    </edge>
    <edge id="A1A2" from="A1" to="A2" priority="-1">
        <lane id="A1A2_0" index="0" disallow="custom2" speed="13.89" length="86.40" shape="3.20,108.80 3.20,195.20"/>
        <lane id="A1A2_1" index="1" allow="custom2" speed="13.89" length="86.40" width="1.60" shape="0.80,108.80 0.80,195.20"/>
    </edge>
    <edge id="A1B1" from="A1" to="B1" priority="-1">
        <lane id="A1B1_0" index="0" disallow="custom2" speed="13.89" length="82.40" shape="8.80,96.80 91.20,96.80"/>
        <lane id="A1B1_1" index="1" allow="custom2" speed="13.89" length="82.40" width="1.60" shape="8.80,99.20 91.20,99.20"/>
    </edge>
    <edge id="A2A1" from="A2" to="A1" priority="-1">
        <lane id="A2A1_0" index="0" disallow="custom2" speed="13.89" length="86.40" shape="-3.20,195.20 -3.20,108.80"/>
        <lane id="A2A1_1" index="1" allow="custom2" speed="13.89" length="86.40" width="1.60" shape="-0.80,195.20 -0.80,108.80"/>
    </edge>
    <edge id="A2B2" from="A2" to="B2" priority="-1">
        <lane id="A2B2_0" index="0" disallow="custom2" speed="13.89" length="86.40" shape="4.80,196.80 91.20,196.80"/>
        <lane id="A2B2_1" index="1" allow="custom2" speed="13.89" length="86.40" width="1.60" shape="4.80,199.20 91.20,199.20"/>
    </edge>
    <edge id="B0A0" from="B0" to="A0" priority="-1">
        <lane id="B0A0_0" index="0" disallow="custom2" speed="13.89" length="86.40" shape="91.20,3.20 4.80,3.20"/>
        <lane id="B0A0_1" index="1" allow="custom2" speed="13.89" length="86.40" width="1.60" shape="91.20,0.80 4.80,0.80"/>
    </edge>
    <edge id="B0B1" from="B0" to="B1" priority="-1">
        <lane id="B0B1_0" index="0" disallow="custom2" speed="13.89" length="82.40" shape="103.20,8.80 103.20,91.20"/>
        <lane id="B0B1_1" index="1" allow="custom2" speed="13.89" length="82.40" width="1.60" shape="100.80,8.80 100.80,91.20"/>
    </edge>
    <edge id="B0C0" from="B0" to="C0" priority="-1">
        <lane id="B0C0_0" index="0" disallow="custom2" speed="13.89" length="86.40" shape="108.80,-3.20 195.20,-3.20"/>
        <lane id="B0C0_1" index="1" allow="custom2" speed="13.89" length="86.40" width="1.60" shape="108.80,-0.80 195.20,-0.80"/>
    </edge>
    <edge id="B1A1" from="B1" to="A1" priority="-1">
        <lane id="B1A1_0" index="0" disallow="custom2" speed="13.89" length="82.40" shape="91.20,103.20 8.80,103.20"/>
        <lane id="B1A1_1" index="1" allow="custom2" speed="13.89" length="82.40" width="1.60" shape="91.20,100.80 8.80,100.80"/>
    </edge>
    <edge id="B1B0" from="B1" to="B0" priority="-1">
        <lane id="B1B0_0" index="0" disallow="custom2" speed="13.89" length="82.40" shape="96.80,91.20 96.80,8.80"/>
        <lane id="B1B0_1" index="1" allow="custom2" speed="13.89" length="82.40" width="1.60" shape="99.20,91.20 99.20,8.80"/>
    </edge>
    <edge id="B1B2" from="B1" to="B2" priority="-1">
        <lane id="B1B2_0" index="0" disallow="custom2" speed="13.89" length="82.40" shape="103.20,108.80 103.20,191.20"/>
        <lane id="B1B2_1" index="1" allow="custom2" speed="13.89" length="82.40" width="1.60" shape="100.80,108.80 100.80,191.20"/>
    </edge>
    <edge id="B1C1" from="B1" to="C1" priority="-1">
        <lane id="B1C1_0" index="0" disallow="custom2" speed="13.89" length="82.40" shape="108.80,96.80 191.20,96.80"/>
        <lane id="B1C1_1" index="1" allow="custom2" speed="13.89" length="82.40" width="1.60" shape="108.80,99.20 191.20,99.20"/>
    </edge>
    <edge id="B2A2" from="B2" to="A2" priority="-1">
        <lane id="B2A2_0" index="0" disallow="custom2" speed="13.89" length="86.40" shape="91.20,203.20 4.80,203.20"/>
        <lane id="B2A2_1" index="1" allow="custom2" speed="13.89" length="86.40" width="1.60" shape="91.20,200.80 4.80,200.80"/>
    </edge>
    <edge id="B2B1" from="B2" to="B1" priority="-1">
        <lane id="B2B1_0" index="0" disallow="custom2" speed="13.89" length="82.40" shape="96.80,191.20 96.80,108.80"/>
        <lane id="B2B1_1" index="1" allow="custom2" speed="13.89" length="82.40" width="1.60" shape="99.20,191.20 99.20,108.80"/>
    </edge>
    <edge id="B2C2" from="B2" to="C2" priority="-1">
        <lane id="B2C2_0" index="0" disallow="custom2" speed="13.89" length="86.40" shape="108.80,196.80 195.20,196.80"/>
        <lane id="B2C2_1" index="1" allow="custom2" speed="13.89" length="86.40" width="1.60" shape="108.80,199.20 195.20,199.20"/>
    </edge>
    <edge id="C0B0" from="C0" to="B0" priority="-1">
        <lane id="C0B0_0" index="0" disallow="custom2" speed="13.89" length="86.40" shape="195.20,3.20 108.80,3.20"/>
        <lane id="C0B0_1" index="1" allow="custom2" speed="13.89" length="86.40" width="1.60" shape="195.20,0.80 108.80,0.80"/>
    </edge>
    <edge id="C0C1" from="C0" to="C1" priority="-1">
        <lane id="C0C1_0" index="0" disallow="custom2" speed="13.89" length="86.40" shape="203.20,4.80 203.20,91.20"/>
        <lane id="C0C1_1" index="1" allow="custom2" speed="13.89" length="86.40" width="1.60" shape="200.80,4.80 200.80,91.20"/>
    </edge>
    <edge id="C1B1" from="C1" to="B1" priority="-1">
        <lane id="C1B1_0" index="0" disallow="custom2" speed="13.89" length="82.40" shape="191.20,103.20 108.80,103.20"/>
        <lane id="C1B1_1" index="1" allow="custom2" speed="13.89" length="82.40" width="1.60" shape="191.20,100.80 108.80,100.80"/>
    </edge>
    <edge id="C1C0" from="C1" to="C0" priority="-1">
        <lane id="C1C0_0" index="0" disallow="custom2" speed="13.89" length="86.40" shape="196.80,91.20 196.80,4.80"/>
        <lane id="C1C0_1" index="1" allow="custom2" speed="13.89" length="86.40" width="1.60" shape="199.20,91.20 199.20,4.80"/>
    </edge>
    <edge id="C1C2" from="C1" to="C2" priority="-1">
        <lane id="C1C2_0" index="0" disallow="custom2" speed="13.89" length="86.40" shape="203.20,108.80 203.20,195.20"/>
        <lane id="C1C2_1" index="1" allow="custom2" speed="13.89" length="86.40" width="1.60" shape="200.80,108.80 200.80,195.20"/>
    </edge>
    <edge id="C2B2" from="C2" to="B2" priority="-1">
        <lane id="C2B2_0" index="0" disallow="custom2" speed="13.89" length="86.40" shape="195.20,203.20 108.80,203.20"/>
        <lane id="C2B2_1" index="1" allow="custom2" speed="13.89" length="86.40" width="1.60" shape="195.20,200.80 108.80,200.80"/>
    </edge>
    <edge id="C2C1" from="C2" to="C1" priority="-1">
        <lane id="C2C1_0" index="0" disallow="custom2" speed="13.89" length="86.40" shape="196.80,195.20 196.80,108.80"/>
        <lane id="C2C1_1" index="1" allow="custom2" speed="13.89" length="86.40" width="1.60" shape="199.20,195.20 199.20,108.80"/>
    </edge>

    <junction id="A0" type="priority" x="0.00" y="0.00" incLanes="A1A0_0 A1A0_1 B0A0_0 B0A0_1" intLanes=":A0_0_0 :A0_1_0" shape="-4.80,4.80 4.80,4.80 4.80,-4.80 1.87,-4.53 -0.53,-3.73 -2.40,-2.40 -3.73,-0.53 -4.53,1.87">
        <request index="0" response="00" foes="00" cont="0"/>
        <request index="1" response="00" foes="00" cont="0"/>
    </junction>
    <junction id="A1" type="priority" x="0.00" y="100.00" incLanes="A2A1_0 A2A1_1 B1A1_0 B1A1_1 A0A1_0 A0A1_1" intLanes=":A1_0_0 :A1_1_0 :A1_2_0 :A1_3_0" shape="-4.80,108.80 4.80,108.80 5.24,106.58 5.80,105.80 6.58,105.24 7.58,104.91 8.80,104.80 8.80,95.20 6.58,94.76 5.80,94.20 5.24,93.42 4.91,92.42 4.80,91.20 -4.80,91.20">
        <request index="0" response="0000" foes="0000" cont="0"/>
        <request index="1" response="1000" foes="1000" cont="0"/>
        <request index="2" response="0000" foes="0000" cont="0"/>
        <request index="3" response="0000" foes="0010" cont="0"/>
    </junction>
    <junction id="A2" type="priority" x="0.00" y="200.00" incLanes="B2A2_0 B2A2_1 A1A2_0 A1A2_1" intLanes=":A2_0_0 :A2_1_0" shape="4.80,204.80 4.80,195.20 -4.80,195.20 -4.53,198.13 -3.73,200.53 -2.40,202.40 -0.53,203.73 1.87,204.53">
        <request index="0" response="00" foes="00" cont="0"/>
        <request index="1" response="00" foes="00" cont="0"/>
    </junction>
    <junction id="B0" type="priority" x="100.00" y="0.00" incLanes="B1B0_0 B1B0_1 C0B0_0 C0B0_1 A0B0_0 A0B0_1" intLanes=":B0_0_0 :B0_1_0 :B0_2_0 :B0_3_0" shape="95.20,8.80 104.80,8.80 105.24,6.58 105.80,5.80 106.58,5.24 107.58,4.91 108.80,4.80 108.80,-4.80 91.20,-4.80 91.20,4.80 93.42,5.24 94.20,5.80 94.76,6.58 95.09,7.58">
        <request index="0" response="0100" foes="0100" cont="0"/>
        <request index="1" response="0000" foes="0000" cont="0"/>
        <request index="2" response="0000" foes="0001" cont="0"/>
        <request index="3" response="0000" foes="0000" cont="0"/>
    </junction>
    <junction id="B1" type="priority" x="100.00" y="100.00" incLanes="B2B1_0 B2B1_1 C1B1_0 C1B1_1 B0B1_0 B0B1_1 A1B1_0 A1B1_1" intLanes=":B1_0_0 :B1_1_0 :B1_2_0 :B1_3_0 :B1_4_0 :B1_5_0 :B1_6_0 :B1_7_0" shape="95.20,108.80 104.80,108.80 105.24,106.58 105.80,105.80 106.58,105.24 107.58,104.91 108.80,104.80 108.80,95.20 106.58,94.76 105.80,94.20 105.24,93.42 104.91,92.42 104.80,91.20 95.20,91.20 94.76,93.42 94.20,94.20 93.42,94.76 92.42,95.09 91.20,95.20 91.20,104.80 93.42,105.24 94.20,105.80 94.76,106.58 95.09,107.58">
        <request index="0" response="00000000" foes="00001000" cont="0"/>
        <request index="1" response="00000000" foes="11001000" cont="0"/>
        <request index="2" response="00100000" foes="00100000" cont="0"/>
        <request index="3" response="00100011" foes="00100011" cont="0"/>
        <request index="4" response="00000000" foes="10000000" cont="0"/>
        <request index="5" response="00000000" foes="10001100" cont="0"/>
        <request index="6" response="00000010" foes="00000010" cont="0"/>
        <request index="7" response="00110010" foes="00110010" cont="0"/>
    </junction>
    <junction id="B2" type="priority" x="100.00" y="200.00" incLanes="C2B2_0 C2B2_1 B1B2_0 B1B2_1 A2B2_0 A2B2_1" intLanes=":B2_0_0 :B2_1_0 :B2_2_0 :B2_3_0" shape="108.80,204.80 108.80,195.20 106.58,194.76 105.80,194.20 105.24,193.42 104.91,192.42 104.80,191.20 95.20,191.20 94.76,193.42 94.20,194.20 93.42,194.76 92.42,195.09 91.20,195.20 91.20,204.80">
        <request index="0" response="0000" foes="0000" cont="0"/>
        <request index="1" response="1000" foes="1000" cont="0"/>
        <request index="2" response="0000" foes="0000" cont="0"/>
        <request index="3" response="0000" foes="0010" cont="0"/>
    </junction>
    <junction id="C0" type="priority" x="200.00" y="0.00" incLanes="C1C0_0 C1C0_1 B0C0_0 B0C0_1" intLanes=":C0_0_0 :C0_1_0" shape="195.20,4.80 204.80,4.80 204.53,1.87 203.73,-0.53 202.40,-2.40 200.53,-3.73 198.13,-4.53 195.20,-4.80">
        <request index="0" response="00" foes="00" cont="0"/>
        <request index="1" response="00" foes="00" cont="0"/>
    </junction>
    <junction id="C1" type="priority" x="200.00" y="100.00" incLanes="C2C1_0 C2C1_1 C0C1_0 C0C1_1 B1C1_0 B1C1_1" intLanes=":C1_0_0 :C1_1_0 :C1_2_0 :C1_3_0" shape="195.20,108.80 204.80,108.80 204.80,91.20 195.20,91.20 194.76,93.42 194.20,94.20 193.42,94.76 192.42,95.09 191.20,95.20 191.20,104.80 193.42,105.24 194.20,105.80 194.76,106.58 195.09,107.58">
        <request index="0" response="0000" foes="0000" cont="0"/>
        <request index="1" response="0000" foes="1000" cont="0"/>
        <request index="2" response="0000" foes="0000" cont="0"/>
        <request index="3" response="0010" foes="0010" cont="0"/>
    </junction>
    <junction id="C2" type="priority" x="200.00" y="200.00" incLanes="C1C2_0 C1C2_1 B2C2_0 B2C2_1" intLanes=":C2_0_0 :C2_1_0" shape="204.80,195.20 195.20,195.20 195.20,204.80 198.13,204.53 200.53,203.73 202.40,202.40 203.73,200.53 204.53,198.13">
        <request index="0" response="00" foes="00" cont="0"/>
        <request index="1" response="00" foes="00" cont="0"/>
    </junction>

    <connection from="A0A1" to="A1B1" fromLane="0" toLane="0" via=":A1_2_0" dir="r" state="M"/>
    <connection from="A0A1" to="A1A2" fromLane="0" toLane="0" via=":A1_3_0" dir="s" state="M"/>
    <connection from="A0B0" to="B0C0" fromLane="0" toLane="0" via=":B0_3_0" dir="s" state="M"/>
    <connection from="A1A0" to="A0B0" fromLane="0" toLane="0" via=":A0_0_0" dir="l" state="M"/>
    <connection from="A1A2" to="A2B2" fromLane="0" toLane="0" via=":A2_1_0" dir="r" state="M"/>
    <connection from="A1B1" to="B1B0" fromLane="0" toLane="0" via=":B1_6_0" dir="r" state="m"/>
    <connection from="A1B1" to="B1C1" fromLane="0" toLane="0" via=":B1_7_0" dir="s" state="m"/>
    <connection from="A2A1" to="A1A0" fromLane="0" toLane="0" via=":A1_0_0" dir="s" state="M"/>
    <connection from="A2B2" to="B2B1" fromLane="0" toLane="0" via=":B2_2_0" dir="r" state="M"/>
    <connection from="A2B2" to="B2C2" fromLane="0" toLane="0" via=":B2_3_0" dir="s" state="M"/>
    <connection from="B0A0" to="A0A1" fromLane="0" toLane="0" via=":A0_1_0" dir="r" state="M"/>
    <connection from="B0B1" to="B1C1" fromLane="0" toLane="0" via=":B1_4_0" dir="r" state="M"/>
    <connection from="B0B1" to="B1B2" fromLane="0" toLane="0" via=":B1_5_0" dir="s" state="M"/>
    <connection from="B0C0" to="C0C1" fromLane="0" toLane="0" via=":C0_1_0" dir="l" state="M"/>
    <connection from="B1A1" to="A1A2" fromLane="0" toLane="0" via=":A1_1_0" dir="r" state="m"/>
    <connection from="B1B0" to="B0A0" fromLane="0" toLane="0" via=":B0_0_0" dir="r" state="m"/>
    <connection from="B1B2" to="B2C2" fromLane="0" toLane="0" via=":B2_1_0" dir="r" state="m"/>
    <connection from="B1C1" to="C1C0" fromLane="0" toLane="0" via=":C1_3_0" dir="r" state="m"/>
    <connection from="B2A2" to="A2A1" fromLane="0" toLane="0" via=":A2_0_0" dir="l" state="M"/>
    <connection from="B2B1" to="B1A1" fromLane="0" toLane="0" via=":B1_0_0" dir="r" state="M"/>
    <connection from="B2B1" to="B1B0" fromLane="0" toLane="0" via=":B1_1_0" dir="s" state="M"/>
    <connection from="B2C2" to="C2C1" fromLane="0" toLane="0" via=":C2_1_0" dir="r" state="M"/>
    <connection from="C0B0" to="B0B1" fromLane="0" toLane="0" via=":B0_1_0" dir="r" state="M"/>
    <connection from="C0B0" to="B0A0" fromLane="0" toLane="0" via=":B0_2_0" dir="s" state="M"/>
    <connection from="C0C1" to="C1C2" fromLane="0" toLane="0" via=":C1_2_0" dir="s" state="M"/>
    <connection from="C1B1" to="B1B2" fromLane="0" toLane="0" via=":B1_2_0" dir="r" state="m"/>
    <connection from="C1B1" to="B1A1" fromLane="0" toLane="0" via=":B1_3_0" dir="s" state="m"/>
    <connection from="C1C0" to="C0B0" fromLane="0" toLane="0" via=":C0_0_0" dir="r" state="M"/>
    <connection from="C1C2" to="C2B2" fromLane="0" toLane="0" via=":C2_0_0" dir="l" state="M"/>
    <connection from="C2B2" to="B2A2" fromLane="0" toLane="0" via=":B2_0_0" dir="s" state="M"/>
    <connection from="C2C1" to="C1B1" fromLane="0" toLane="0" via=":C1_0_0" dir="r" state="M"/>
    <connection from="C2C1" to="C1C0" fromLane="0" toLane="0" via=":C1_1_0" dir="s" state="M"/>

    <connection from=":A0_0" to="A0B0" fromLane="0" toLane="0" dir="l" state="M"/>
    <connection from=":A0_1" to="A0A1" fromLane="0" toLane="0" dir="r" state="M"/>
    <connection from=":A1_0" to="A1A0" fromLane="0" toLane="0" dir="s" state="M"/>
    <connection from=":A1_1" to="A1A2" fromLane="0" toLane="0" dir="r" state="M"/>
    <connection from=":A1_2" to="A1B1" fromLane="0" toLane="0" dir="r" state="M"/>
    <connection from=":A1_3" to="A1A2" fromLane="0" toLane="0" dir="s" state="M"/>
    <connection from=":A2_0" to="A2A1" fromLane="0" toLane="0" dir="l" state="M"/>
    <connection from=":A2_1" to="A2B2" fromLane="0" toLane="0" dir="r" state="M"/>
    <connection from=":B0_0" to="B0A0" fromLane="0" toLane="0" dir="r" state="M"/>
    <connection from=":B0_1" to="B0B1" fromLane="0" toLane="0" dir="r" state="M"/>
    <connection from=":B0_2" to="B0A0" fromLane="0" toLane="0" dir="s" state="M"/>
    <connection from=":B0_3" to="B0C0" fromLane="0" toLane="0" dir="s" state="M"/>
    <connection from=":B1_0" to="B1A1" fromLane="0" toLane="0" dir="r" state="M"/>
    <connection from=":B1_1" to="B1B0" fromLane="0" toLane="0" dir="s" state="M"/>
    <connection from=":B1_2" to="B1B2" fromLane="0" toLane="0" dir="r" state="M"/>
    <connection from=":B1_3" to="B1A1" fromLane="0" toLane="0" dir="s" state="M"/>
    <connection from=":B1_4" to="B1C1" fromLane="0" toLane="0" dir="r" state="M"/>
    <connection from=":B1_5" to="B1B2" fromLane="0" toLane="0" dir="s" state="M"/>
    <connection from=":B1_6" to="B1B0" fromLane="0" toLane="0" dir="r" state="M"/>
    <connection from=":B1_7" to="B1C1" fromLane="0" toLane="0" dir="s" state="M"/>
    <connection from=":B2_0" to="B2A2" fromLane="0" toLane="0" dir="s" state="M"/>
    <connection from=":B2_1" to="B2C2" fromLane="0" toLane="0" dir="r" state="M"/>
    <connection from=":B2_2" to="B2B1" fromLane="0" toLane="0" dir="r" state="M"/>
    <connection from=":B2_3" to="B2C2" fromLane="0" toLane="0" dir="s" state="M"/>
    <connection from=":C0_0" to="C0B0" fromLane="0" toLane="0" dir="r" state="M"/>
    <connection from=":C0_1" to="C0C1" fromLane="0" toLane="0" dir="l" state="M"/>
    <connection from=":C1_0" to="C1B1" fromLane="0" toLane="0" dir="r" state="M"/>
    <connection from=":C1_1" to="C1C0" fromLane="0" toLane="0" dir="s" state="M"/>
    <connection from=":C1_2" to="C1C2" fromLane="0" toLane="0" dir="s" state="M"/>
    <connection from=":C1_3" to="C1C0" fromLane="0" toLane="0" dir="r" state="M"/>
    <connection from=":C2_0" to="C2B2" fromLane="0" toLane="0" dir="l" state="M"/>
    <connection from=":C2_1" to="C2C1" fromLane="0" toLane="0" dir="r" state="M"/>

</net>
