<?xml version="1.0" encoding="UTF-8"?>
<!-- generated on 2020-04-14 10:15:47.664898 by $Id$
  options: -n test.net.xml -o 800Vehicles.trips.xml -b 0 -e 1000 -p 1.25
-->
<routes xmlns:xsi="http://www.w3.org/2001/XMLSchema-instance" xsi:noNamespaceSchemaLocation="http://sumo.dlr.de/xsd/routes_file.xsd">
    <trip id="0" depart="0.00" from="E3D3" to="D3D4"/>
    <trip id="1" depart="1.25" from="C2D2" to="D2D3"/>
    <trip id="2" depart="2.50" from="B4B3" to="B1C1"/>
    <trip id="3" depart="3.75" from="E0D0" to="C3D3"/>
    <trip id="4" depart="5.00" from="B1B0" to="B0A0"/>
    <trip id="5" depart="6.25" from="D1C1" to="E3E4"/>
    <trip id="6" depart="7.50" from="B1C1" to="B1A1"/>
    <trip id="7" depart="8.75" from="B0B1" to="A2A3"/>
    <trip id="8" depart="10.00" from="A2B2" to="E3E2"/>
    <trip id="9" depart="11.25" from="B4A4" to="E3E2"/>
    <trip id="10" depart="12.50" from="E3D3" to="D2E2"/>
    <trip id="11" depart="13.75" from="C2D2" to="C2C3"/>
    <trip id="12" depart="15.00" from="A0A1" to="E2E3"/>
    <trip id="13" depart="16.25" from="E0D0" to="C4B4"/>
    <trip id="14" depart="17.50" from="D4C4" to="B3C3"/>
    <trip id="15" depart="18.75" from="B1C1" to="E0E1"/>
    <trip id="16" depart="20.00" from="D0C0" to="C1C2"/>
    <trip id="17" depart="21.25" from="D4C4" to="C4D4"/>
    <trip id="18" depart="22.50" from="E3E2" to="E0E1"/>
    <trip id="19" depart="23.75" from="D1D0" to="C3C2"/>
    <trip id="20" depart="25.00" from="B0B1" to="B2B1"/>
    <trip id="21" depart="26.25" from="A2B2" to="E1D1"/>
    <trip id="22" depart="27.50" from="C0B0" to="C4B4"/>
    <trip id="23" depart="28.75" from="D1D0" to="D2E2"/>
    <trip id="24" depart="30.00" from="B0C0" to="C0B0"/>
    <trip id="25" depart="31.25" from="C2C3" to="B1A1"/>
    <trip id="26" depart="32.50" from="D3C3" to="D0D1"/>
    <trip id="27" depart="33.75" from="C2C3" to="B1B0"/>
    <trip id="28" depart="35.00" from="A4B4" to="A3B3"/>
    <trip id="29" depart="36.25" from="E2E1" to="E1E0"/>
    <trip id="30" depart="37.50" from="D3D2" to="E2E1"/>
    <trip id="31" depart="38.75" from="E3E2" to="A0B0"/>
    <trip id="32" depart="40.00" from="C1C0" to="B3C3"/>
    <trip id="33" depart="41.25" from="E2E3" to="C3C2"/>
    <trip id="34" depart="42.50" from="B1B0" to="C2D2"/>
    <trip id="35" depart="43.75" from="D4D3" to="D0C0"/>
    <trip id="36" depart="45.00" from="D1D2" to="D4C4"/>
    <trip id="37" depart="46.25" from="A3B3" to="C1B1"/>
    <trip id="38" depart="47.50" from="A2B2" to="D1D2"/>
    <trip id="39" depart="48.75" from="B0B1" to="E0D0"/>
    <trip id="40" depart="50.00" from="B0A0" to="C4B4"/>
    <trip id="41" depart="51.25" from="C2C1" to="D3D4"/>
    <trip id="42" depart="52.50" from="C3D3" to="B1B0"/>
    <trip id="43" depart="53.75" from="D2E2" to="B2A2"/>
    <trip id="44" depart="55.00" from="A3A2" to="D1D0"/>
    <trip id="45" depart="56.25" from="B4A4" to="E3D3"/>
    <trip id="46" depart="57.50" from="C0B0" to="A3B3"/>
    <trip id="47" depart="58.75" from="A3A4" to="C0C1"/>
    <trip id="48" depart="60.00" from="B3A3" to="E1E2"/>
    <trip id="49" depart="61.25" from="D2D1" to="D2D3"/>
    <trip id="50" depart="62.50" from="A4B4" to="E1E2"/>
    <trip id="51" depart="63.75" from="B2B1" to="C3C2"/>
    <trip id="52" depart="65.00" from="E0E1" to="D3D4"/>
    <trip id="53" depart="66.25" from="D1D2" to="D3E3"/>
    <trip id="54" depart="67.50" from="A3A4" to="D1D2"/>
    <trip id="55" depart="68.75" from="D3D2" to="B1B0"/>
    <trip id="56" depart="70.00" from="C2D2" to="D4C4"/>
    <trip id="57" depart="71.25" from="D2D3" to="A3B3"/>
    <trip id="58" depart="72.50" from="B0A0" to="B2A2"/>
    <trip id="59" depart="73.75" from="D3E3" to="C4B4"/>
    <trip id="60" depart="75.00" from="D3C3" to="B2C2"/>
    <trip id="61" depart="76.25" from="E1D1" to="C3D3"/>
    <trip id="62" depart="77.50" from="A3B3" to="E3E2"/>
    <trip id="63" depart="78.75" from="B1B0" to="C1C0"/>
    <trip id="64" depart="80.00" from="D0C0" to="C2D2"/>
    <trip id="65" depart="81.25" from="A3A4" to="C2C1"/>
    <trip id="66" depart="82.50" from="C3C4" to="C1C2"/>
    <trip id="67" depart="83.75" from="E4D4" to="C3C2"/>
    <trip id="68" depart="85.00" from="A2B2" to="C2B2"/>
    <trip id="69" depart="86.25" from="E3E2" to="D3E3"/>
    <trip id="70" depart="87.50" from="E1D1" to="D0C0"/>
    <trip id="71" depart="88.75" from="D2C2" to="E0E1"/>
    <trip id="72" depart="90.00" from="D1D0" to="B3A3"/>
    <trip id="73" depart="91.25" from="C3C2" to="D4D3"/>
    <trip id="74" depart="92.50" from="B1B0" to="B4C4"/>
    <trip id="75" depart="93.75" from="D4D3" to="D1D2"/>
    <trip id="76" depart="95.00" from="A2A3" to="A0B0"/>
    <trip id="77" depart="96.25" from="C2C1" to="A4B4"/>
    <trip id="78" depart="97.50" from="B3C3" to="D2E2"/>
    <trip id="79" depart="98.75" from="B1C1" to="D1E1"/>
    <trip id="80" depart="100.00" from="B3B2" to="D4D3"/>
    <trip id="81" depart="101.25" from="A0B0" to="C2C1"/>
    <trip id="82" depart="102.50" from="C0C1" to="A0B0"/>
    <trip id="83" depart="103.75" from="C4D4" to="B0A0"/>
    <trip id="84" depart="105.00" from="B1B0" to="D4D3"/>
    <trip id="85" depart="106.25" from="A3A2" to="B1A1"/>
    <trip id="86" depart="107.50" from="A2A3" to="C2C1"/>
    <trip id="87" depart="108.75" from="B0C0" to="A1B1"/>
    <trip id="88" depart="110.00" from="E2D2" to="E2E3"/>
    <trip id="89" depart="111.25" from="E0D0" to="C0D0"/>
    <trip id="90" depart="112.50" from="A4A3" to="C0B0"/>
    <trip id="91" depart="113.75" from="C1C2" to="E0D0"/>
    <trip id="92" depart="115.00" from="A3A2" to="A3A2"/>
    <trip id="93" depart="116.25" from="E2D2" to="C0C1"/>
    <trip id="94" depart="117.50" from="E2D2" to="D0C0"/>
    <trip id="95" depart="118.75" from="D4D3" to="B4B3"/>
    <trip id="96" depart="120.00" from="B3C3" to="E4E3"/>
    <trip id="97" depart="121.25" from="A3A2" to="A1A2"/>
    <trip id="98" depart="122.50" from="B4C4" to="C1C0"/>
    <trip id="99" depart="123.75" from="B4B3" to="C3C2"/>
    <trip id="100" depart="125.00" from="B3C3" to="D0E0"/>
    <trip id="101" depart="126.25" from="E0E1" to="E4D4"/>
    <trip id="102" depart="127.50" from="D1E1" to="E3E4"/>
    <trip id="103" depart="128.75" from="D0D1" to="B3B4"/>
    <trip id="104" depart="130.00" from="C3C2" to="E1D1"/>
    <trip id="105" depart="131.25" from="D3D4" to="E3E2"/>
    <trip id="106" depart="132.50" from="E2E1" to="C0B0"/>
    <trip id="107" depart="133.75" from="A1A2" to="A2A1"/>
    <trip id="108" depart="135.00" from="C0B0" to="D1D2"/>
    <trip id="109" depart="136.25" from="A4B4" to="C4D4"/>
    <trip id="110" depart="137.50" from="B4A4" to="B3A3"/>
    <trip id="111" depart="138.75" from="D4C4" to="E2E3"/>
    <trip id="112" depart="140.00" from="E4E3" to="B3C3"/>
    <trip id="113" depart="141.25" from="E1E2" to="E2E3"/>
    <trip id="114" depart="142.50" from="A3B3" to="D4E4"/>
    <trip id="115" depart="143.75" from="C1C2" to="B1C1"/>
    <trip id="116" depart="145.00" from="C4D4" to="E2E3"/>
    <trip id="117" depart="146.25" from="B2B3" to="E3E2"/>
    <trip id="118" depart="147.50" from="B4C4" to="B2A2"/>
    <trip id="119" depart="148.75" from="D1E1" to="B4B3"/>
    <trip id="120" depart="150.00" from="B3A3" to="B3A3"/>
    <trip id="121" depart="151.25" from="B0B1" to="A2A3"/>
    <trip id="122" depart="152.50" from="B3B2" to="D3D4"/>
    <trip id="123" depart="153.75" from="E2D2" to="B2B1"/>
    <trip id="124" depart="155.00" from="B4B3" to="C0C1"/>
    <trip id="125" depart="156.25" from="B3B2" to="D4D3"/>
    <trip id="126" depart="157.50" from="B3C3" to="E2E3"/>
    <trip id="127" depart="158.75" from="D1C1" to="E1D1"/>
    <trip id="128" depart="160.00" from="A4B4" to="E4E3"/>
    <trip id="129" depart="161.25" from="A0B0" to="B0B1"/>
    <trip id="130" depart="162.50" from="B3B4" to="E4D4"/>
    <trip id="131" depart="163.75" from="A0A1" to="D1D0"/>
    <trip id="132" depart="165.00" from="B4C4" to="C2D2"/>
    <trip id="133" depart="166.25" from="B3B2" to="D2C2"/>
    <trip id="134" depart="167.50" from="E1E2" to="E4E3"/>
    <trip id="135" depart="168.75" from="E4E3" to="D2C2"/>
    <trip id="136" depart="170.00" from="E0D0" to="E4D4"/>
    <trip id="137" depart="171.25" from="D3D4" to="E3E2"/>
    <trip id="138" depart="172.50" from="C4C3" to="A2A1"/>
    <trip id="139" depart="173.75" from="B1A1" to="C3D3"/>
    <trip id="140" depart="175.00" from="C0C1" to="C1B1"/>
    <trip id="141" depart="176.25" from="D3E3" to="D3C3"/>
    <trip id="142" depart="177.50" from="B3A3" to="B3A3"/>
    <trip id="143" depart="178.75" from="A0A1" to="E4E3"/>
    <trip id="144" depart="180.00" from="E0E1" to="C4D4"/>
    <trip id="145" depart="181.25" from="B0B1" to="B2C2"/>
    <trip id="146" depart="182.50" from="D3D2" to="D4C4"/>
    <trip id="147" depart="183.75" from="D3C3" to="A0B0"/>
    <trip id="148" depart="185.00" from="E3E4" to="B1C1"/>
    <trip id="149" depart="186.25" from="A4A3" to="D1D2"/>
    <trip id="150" depart="187.50" from="C1B1" to="D4C4"/>
    <trip id="151" depart="188.75" from="E0D0" to="C3D3"/>
    <trip id="152" depart="190.00" from="C1B1" to="D2D3"/>
    <trip id="153" depart="191.25" from="C4B4" to="B2B1"/>
    <trip id="154" depart="192.50" from="E4D4" to="B2B1"/>
    <trip id="155" depart="193.75" from="D3C3" to="E3E2"/>
    <trip id="156" depart="195.00" from="E0D0" to="A4A3"/>
    <trip id="157" depart="196.25" from="C1C0" to="D3D4"/>
    <trip id="158" depart="197.50" from="D1D0" to="C3C2"/>
    <trip id="159" depart="198.75" from="D1C1" to="D3D2"/>
    <trip id="160" depart="200.00" from="E3E2" to="C4D4"/>
    <trip id="161" depart="201.25" from="C1C0" to="B3A3"/>
    <trip id="162" depart="202.50" from="E1E0" to="A2A3"/>
    <trip id="163" depart="203.75" from="E3D3" to="B1C1"/>
    <trip id="164" depart="205.00" from="E0D0" to="B3C3"/>
    <trip id="165" depart="206.25" from="E4E3" to="A3A4"/>
    <trip id="166" depart="207.50" from="D4C4" to="D3C3"/>
    <trip id="167" depart="208.75" from="C2D2" to="D2E2"/>
    <trip id="168" depart="210.00" from="C4D4" to="B0B1"/>
    <trip id="169" depart="211.25" from="C1C0" to="C0B0"/>
    <trip id="170" depart="212.50" from="C2B2" to="E4D4"/>
    <trip id="171" depart="213.75" from="D1D0" to="C4C3"/>
    <trip id="172" depart="215.00" from="C4C3" to="E3D3"/>
    <trip id="173" depart="216.25" from="B2B1" to="B4C4"/>
    <trip id="174" depart="217.50" from="E4D4" to="C2C1"/>
    <trip id="175" depart="218.75" from="C3C2" to="E1E2"/>
    <trip id="176" depart="220.00" from="D1D0" to="E1E2"/>
    <trip id="177" depart="221.25" from="B3A3" to="C4D4"/>
    <trip id="178" depart="222.50" from="A1B1" to="B3B4"/>
    <trip id="179" depart="223.75" from="B0C0" to="C3B3"/>
    <trip id="180" depart="225.00" from="B0C0" to="C4B4"/>
    <trip id="181" depart="226.25" from="C0B0" to="A4A3"/>
    <trip id="182" depart="227.50" from="A1A0" to="A2A3"/>
    <trip id="183" depart="228.75" from="C3C4" to="D3D2"/>
    <trip id="184" depart="230.00" from="B2A2" to="B2A2"/>
    <trip id="185" depart="231.25" from="C2C3" to="A0B0"/>
    <trip id="186" depart="232.50" from="E0D0" to="D3C3"/>
    <trip id="187" depart="233.75" from="C2C3" to="A3A4"/>
    <trip id="188" depart="235.00" from="B2C2" to="A0A1"/>
    <trip id="189" depart="236.25" from="C1C2" to="A1B1"/>
    <trip id="190" depart="237.50" from="B3B2" to="C4C3"/>
    <trip id="191" depart="238.75" from="B3B2" to="E0D0"/>
    <trip id="192" depart="240.00" from="E2E1" to="E4E3"/>
    <trip id="193" depart="241.25" from="E2E3" to="B4B3"/>
    <trip id="194" depart="242.50" from="B0B1" to="A3A4"/>
    <trip id="195" depart="243.75" from="D0D1" to="B3C3"/>
    <trip id="196" depart="245.00" from="D2E2" to="C3D3"/>
    <trip id="197" depart="246.25" from="D0C0" to="A4B4"/>
    <trip id="198" depart="247.50" from="D2C2" to="D0C0"/>
    <trip id="199" depart="248.75" from="D2C2" to="D1D0"/>
    <trip id="200" depart="250.00" from="A3B3" to="B1A1"/>
    <trip id="201" depart="251.25" from="C4C3" to="D0D1"/>
    <trip id="202" depart="252.50" from="B1A1" to="E1E2"/>
    <trip id="203" depart="253.75" from="D3D2" to="B0A0"/>
    <trip id="204" depart="255.00" from="C3C2" to="D4E4"/>
    <trip id="205" depart="256.25" from="B1B2" to="D0E0"/>
    <trip id="206" depart="257.50" from="C0B0" to="C2D2"/>
    <trip id="207" depart="258.75" from="C1D1" to="D2E2"/>
    <trip id="208" depart="260.00" from="A1B1" to="B2A2"/>
    <trip id="209" depart="261.25" from="C3D3" to="E1E0"/>
    <trip id="210" depart="262.50" from="C4D4" to="A2B2"/>
    <trip id="211" depart="263.75" from="A2A1" to="B2B3"/>
    <trip id="212" depart="265.00" from="C2B2" to="A1A2"/>
    <trip id="213" depart="266.25" from="C2C3" to="A4A3"/>
    <trip id="214" depart="267.50" from="B3A3" to="D4D3"/>
    <trip id="215" depart="268.75" from="C2C3" to="C3B3"/>
    <trip id="216" depart="270.00" from="D4D3" to="B4C4"/>
    <trip id="217" depart="271.25" from="D2D3" to="D2D1"/>
    <trip id="218" depart="272.50" from="C0D0" to="A1B1"/>
    <trip id="219" depart="273.75" from="C4D4" to="A2A3"/>
    <trip id="220" depart="275.00" from="D2D3" to="B1C1"/>
    <trip id="221" depart="276.25" from="B3B4" to="C4B4"/>
    <trip id="222" depart="277.50" from="C0C1" to="C3C4"/>
    <trip id="223" depart="278.75" from="D2D1" to="C3D3"/>
    <trip id="224" depart="280.00" from="E4D4" to="C1C0"/>
    <trip id="225" depart="281.25" from="C4C3" to="E1E2"/>
    <trip id="226" depart="282.50" from="D2E2" to="E1E0"/>
    <trip id="227" depart="283.75" from="B1B2" to="B3C3"/>
    <trip id="228" depart="285.00" from="A4B4" to="D1C1"/>
    <trip id="229" depart="286.25" from="E2E1" to="B0A0"/>
    <trip id="230" depart="287.50" from="A4A3" to="A4A3"/>
    <trip id="231" depart="288.75" from="E4D4" to="E3D3"/>
    <trip id="232" depart="290.00" from="B3B4" to="A0B0"/>
    <trip id="233" depart="291.25" from="E2D2" to="D0C0"/>
    <trip id="234" depart="292.50" from="D3D2" to="E0D0"/>
    <trip id="235" depart="293.75" from="B3B2" to="D3C3"/>
    <trip id="236" depart="295.00" from="C0B0" to="E0D0"/>
    <trip id="237" depart="296.25" from="A0B0" to="B4C4"/>
    <trip id="238" depart="297.50" from="A0B0" to="A0B0"/>
    <trip id="239" depart="298.75" from="B0C0" to="C1C2"/>
    <trip id="240" depart="300.00" from="C2D2" to="C2B2"/>
    <trip id="241" depart="301.25" from="D2E2" to="C3C2"/>
    <trip id="242" depart="302.50" from="E4E3" to="D4D3"/>
    <trip id="243" depart="303.75" from="C4C3" to="C1B1"/>
    <trip id="244" depart="305.00" from="B2C2" to="D4C4"/>
    <trip id="245" depart="306.25" from="B2B3" to="D2E2"/>
    <trip id="246" depart="307.50" from="E3E2" to="D3C3"/>
    <trip id="247" depart="308.75" from="C0C1" to="D1D0"/>
    <trip id="248" depart="310.00" from="B4A4" to="E1D1"/>
    <trip id="249" depart="311.25" from="B2A2" to="D1D0"/>
    <trip id="250" depart="312.50" from="E3E2" to="D4D3"/>
    <trip id="251" depart="313.75" from="B2C2" to="B2B1"/>
    <trip id="252" depart="315.00" from="B3A3" to="E0E1"/>
    <trip id="253" depart="316.25" from="B0A0" to="D2D1"/>
    <trip id="254" depart="317.50" from="B3B2" to="A3B3"/>
    <trip id="255" depart="318.75" from="B2A2" to="C2C3"/>
    <trip id="256" depart="320.00" from="B4B3" to="E4E3"/>
    <trip id="257" depart="321.25" from="A2A3" to="B4A4"/>
    <trip id="258" depart="322.50" from="D3D4" to="D0E0"/>
    <trip id="259" depart="323.75" from="B0A0" to="E0D0"/>
    <trip id="260" depart="325.00" from="C3D3" to="B1B2"/>
    <trip id="261" depart="326.25" from="A1A2" to="D2D1"/>
    <trip id="262" depart="327.50" from="D2C2" to="D1D2"/>
    <trip id="263" depart="328.75" from="A1A2" to="E1D1"/>
    <trip id="264" depart="330.00" from="A4B4" to="E2E1"/>
    <trip id="265" depart="331.25" from="E0E1" to="E2E3"/>
    <trip id="266" depart="332.50" from="E3E2" to="A3B3"/>
    <trip id="267" depart="333.75" from="E3D3" to="D4C4"/>
    <trip id="268" depart="335.00" from="D2E2" to="E1D1"/>
    <trip id="269" depart="336.25" from="D1C1" to="C4D4"/>
    <trip id="270" depart="337.50" from="C1C0" to="B4A4"/>
    <trip id="271" depart="338.75" from="B4C4" to="E4E3"/>
    <trip id="272" depart="340.00" from="A1A2" to="C3D3"/>
    <trip id="273" depart="341.25" from="C1C0" to="A3A2"/>
    <trip id="274" depart="342.50" from="B2C2" to="D4C4"/>
    <trip id="275" depart="343.75" from="C4D4" to="D3C3"/>
    <trip id="276" depart="345.00" from="E4D4" to="E4E3"/>
    <trip id="277" depart="346.25" from="B1C1" to="D1D0"/>
    <trip id="278" depart="347.50" from="D4E4" to="D1D0"/>
    <trip id="279" depart="348.75" from="C0B0" to="A3B3"/>
    <trip id="280" depart="350.00" from="D2D3" to="D2C2"/>
    <trip id="281" depart="351.25" from="C4C3" to="C4D4"/>
    <trip id="282" depart="352.50" from="D2D3" to="D3C3"/>
    <trip id="283" depart="353.75" from="B3C3" to="C1B1"/>
    <trip id="284" depart="355.00" from="D1D2" to="A3B3"/>
    <trip id="285" depart="356.25" from="D2D1" to="B2B3"/>
    <trip id="286" depart="357.50" from="D1D0" to="B1A1"/>
    <trip id="287" depart="358.75" from="D2D1" to="C0B0"/>
    <trip id="288" depart="360.00" from="D4E4" to="E2D2"/>
    <trip id="289" depart="361.25" from="E2D2" to="C0D0"/>
    <trip id="290" depart="362.50" from="D4D3" to="B1B0"/>
    <trip id="291" depart="363.75" from="B0A0" to="B0B1"/>
    <trip id="292" depart="365.00" from="D2D3" to="E2D2"/>
    <trip id="293" depart="366.25" from="D3E3" to="B4B3"/>
    <trip id="294" depart="367.50" from="A3A4" to="E4E3"/>
    <trip id="295" depart="368.75" from="E0D0" to="C3D3"/>
    <trip id="296" depart="370.00" from="A2A3" to="D2E2"/>
    <trip id="297" depart="371.25" from="D3E3" to="E0D0"/>
    <trip id="298" depart="372.50" from="B4C4" to="B2C2"/>
    <trip id="299" depart="373.75" from="C0B0" to="E4D4"/>
    <trip id="300" depart="375.00" from="D4E4" to="C2C3"/>
    <trip id="301" depart="376.25" from="B3B2" to="E3E4"/>
    <trip id="302" depart="377.50" from="B3B4" to="A3A4"/>
    <trip id="303" depart="378.75" from="E2E1" to="E1E2"/>
    <trip id="304" depart="380.00" from="C4C3" to="E4E3"/>
    <trip id="305" depart="381.25" from="B2B3" to="D2D1"/>
    <trip id="306" depart="382.50" from="B1C1" to="B3A3"/>
    <trip id="307" depart="383.75" from="D2E2" to="B4A4"/>
    <trip id="308" depart="385.00" from="E1E2" to="E0E1"/>
    <trip id="309" depart="386.25" from="D4D3" to="C0D0"/>
    <trip id="310" depart="387.50" from="A0A1" to="E2E3"/>
    <trip id="311" depart="388.75" from="B4B3" to="A4B4"/>
    <trip id="312" depart="390.00" from="D1E1" to="E0E1"/>
    <trip id="313" depart="391.25" from="C4D4" to="E1E0"/>
    <trip id="314" depart="392.50" from="E0D0" to="B1B0"/>
    <trip id="315" depart="393.75" from="E0D0" to="D1D2"/>
    <trip id="316" depart="395.00" from="E1E2" to="B0C0"/>
    <trip id="317" depart="396.25" from="C2B2" to="A2A1"/>
    <trip id="318" depart="397.50" from="D2D3" to="E1D1"/>
    <trip id="319" depart="398.75" from="B4A4" to="C4D4"/>
    <trip id="320" depart="400.00" from="E1E0" to="A0A1"/>
    <trip id="321" depart="401.25" from="E0E1" to="B0B1"/>
    <trip id="322" depart="402.50" from="C0C1" to="C2C1"/>
    <trip id="323" depart="403.75" from="B3A3" to="C4B4"/>
    <trip id="324" depart="405.00" from="C4B4" to="C3C2"/>
    <trip id="325" depart="406.25" from="D2D3" to="B1B2"/>
    <trip id="326" depart="407.50" from="E4D4" to="B3A3"/>
    <trip id="327" depart="408.75" from="B1A1" to="B3A3"/>
    <trip id="328" depart="410.00" from="E0D0" to="A1A2"/>
    <trip id="329" depart="411.25" from="E1E0" to="B4B3"/>
    <trip id="330" depart="412.50" from="C0D0" to="B1C1"/>
    <trip id="331" depart="413.75" from="E3E4" to="B2A2"/>
    <trip id="332" depart="415.00" from="E2E3" to="B1A1"/>
    <trip id="333" depart="416.25" from="E1D1" to="B2A2"/>
    <trip id="334" depart="417.50" from="A4B4" to="B0B1"/>
    <trip id="335" depart="418.75" from="E4E3" to="B2C2"/>
    <trip id="336" depart="420.00" from="E1E0" to="C3C4"/>
    <trip id="337" depart="421.25" from="E3E2" to="B2A2"/>
    <trip id="338" depart="422.50" from="C4D4" to="D0D1"/>
    <trip id="339" depart="423.75" from="C2B2" to="E3D3"/>
    <trip id="340" depart="425.00" from="A2B2" to="C3D3"/>
    <trip id="341" depart="426.25" from="A2A3" to="B0A0"/>
    <trip id="342" depart="427.50" from="D0C0" to="B0A0"/>
    <trip id="343" depart="428.75" from="D3D2" to="B1A1"/>
    <trip id="344" depart="430.00" from="C3D3" to="B4B3"/>
    <trip id="345" depart="431.25" from="B4B3" to="D2D3"/>
    <trip id="346" depart="432.50" from="C2C1" to="A1A0"/>
    <trip id="347" depart="433.75" from="D1C1" to="B3A3"/>
    <trip id="348" depart="435.00" from="B0A0" to="E1E0"/>
    <trip id="349" depart="436.25" from="C4C3" to="B2B1"/>
    <trip id="350" depart="437.50" from="E3E4" to="A1A2"/>
    <trip id="351" depart="438.75" from="D0E0" to="D0D1"/>
    <trip id="352" depart="440.00" from="C3B3" to="B3B4"/>
    <trip id="353" depart="441.25" from="A1A0" to="D2E2"/>
    <trip id="354" depart="442.50" from="A0B0" to="B1C1"/>
    <trip id="355" depart="443.75" from="B0B1" to="B2C2"/>
    <trip id="356" depart="445.00" from="B2B3" to="D0E0"/>
    <trip id="357" depart="446.25" from="B0C0" to="C2C1"/>
    <trip id="358" depart="447.50" from="B3A3" to="E4D4"/>
    <trip id="359" depart="448.75" from="C4B4" to="B0C0"/>
    <trip id="360" depart="450.00" from="B3B4" to="E2D2"/>
    <trip id="361" depart="451.25" from="E1D1" to="C2D2"/>
    <trip id="362" depart="452.50" from="D3D4" to="C0D0"/>
    <trip id="363" depart="453.75" from="A0A1" to="B3B4"/>
    <trip id="364" depart="455.00" from="C4C3" to="B1B0"/>
    <trip id="365" depart="456.25" from="B0C0" to="D4D3"/>
    <trip id="366" depart="457.50" from="B1C1" to="B4B3"/>
    <trip id="367" depart="458.75" from="E3D3" to="C3C4"/>
    <trip id="368" depart="460.00" from="B3B2" to="A0A1"/>
    <trip id="369" depart="461.25" from="B3B2" to="C1C0"/>
    <trip id="370" depart="462.50" from="B1A1" to="B3A3"/>
    <trip id="371" depart="463.75" from="D4D3" to="B3B2"/>
    <trip id="372" depart="465.00" from="D0D1" to="D4C4"/>
    <trip id="373" depart="466.25" from="E3E2" to="B2A2"/>
    <trip id="374" depart="467.50" from="C4D4" to="D3D4"/>
    <trip id="375" depart="468.75" from="D3C3" to="B2B3"/>
    <trip id="376" depart="470.00" from="D2D1" to="A4A3"/>
    <trip id="377" depart="471.25" from="D3C3" to="D1C1"/>
    <trip id="378" depart="472.50" from="C3C2" to="A3A2"/>
    <trip id="379" depart="473.75" from="E1E2" to="C3C2"/>
    <trip id="380" depart="475.00" from="C0C1" to="D0E0"/>
    <trip id="381" depart="476.25" from="D2D3" to="D1D0"/>
    <trip id="382" depart="477.50" from="A0A1" to="A1A2"/>
    <trip id="383" depart="478.75" from="D2C2" to="D1E1"/>
    <trip id="384" depart="480.00" from="A2B2" to="C1C0"/>
    <trip id="385" depart="481.25" from="A3B3" to="C2C3"/>
    <trip id="386" depart="482.50" from="E2D2" to="B4C4"/>
    <trip id="387" depart="483.75" from="D4D3" to="D3C3"/>
    <trip id="388" depart="485.00" from="E3D3" to="E2E3"/>
    <trip id="389" depart="486.25" from="E1D1" to="C4B4"/>
    <trip id="390" depart="487.50" from="B4B3" to="B1C1"/>
    <trip id="391" depart="488.75" from="C4D4" to="E0D0"/>
    <trip id="392" depart="490.00" from="A2A1" to="A0A1"/>
    <trip id="393" depart="491.25" from="D1D0" to="B1B2"/>
    <trip id="394" depart="492.50" from="B3B4" to="D2C2"/>
    <trip id="395" depart="493.75" from="D2E2" to="B1C1"/>
    <trip id="396" depart="495.00" from="C3D3" to="C2D2"/>
    <trip id="397" depart="496.25" from="D3D2" to="D4E4"/>
    <trip id="398" depart="497.50" from="C1C2" to="D0D1"/>
    <trip id="399" depart="498.75" from="C0C1" to="D0E0"/>
    <trip id="400" depart="500.00" from="C2B2" to="D0D1"/>
    <trip id="401" depart="501.25" from="D2C2" to="A1B1"/>
    <trip id="402" depart="502.50" from="D3D2" to="E0D0"/>
    <trip id="403" depart="503.75" from="C1C2" to="B4A4"/>
    <trip id="404" depart="505.00" from="D2D1" to="E1D1"/>
    <trip id="405" depart="506.25" from="E1D1" to="C2B2"/>
    <trip id="406" depart="507.50" from="D3C3" to="C1D1"/>
    <trip id="407" depart="508.75" from="A4B4" to="C0D0"/>
    <trip id="408" depart="510.00" from="C2D2" to="C0D0"/>
    <trip id="409" depart="511.25" from="A2B2" to="C0B0"/>
    <trip id="410" depart="512.50" from="A4B4" to="B0B1"/>
    <trip id="411" depart="513.75" from="D4C4" to="E0E1"/>
    <trip id="412" depart="515.00" from="D3D2" to="B2A2"/>
    <trip id="413" depart="516.25" from="D2E2" to="B3C3"/>
    <trip id="414" depart="517.50" from="B0C0" to="B4B3"/>
    <trip id="415" depart="518.75" from="E2D2" to="A3A2"/>
    <trip id="416" depart="520.00" from="B2B3" to="A1B1"/>
    <trip id="417" depart="521.25" from="E2E1" to="C1C2"/>
    <trip id="418" depart="522.50" from="B0A0" to="E3D3"/>
    <trip id="419" depart="523.75" from="E2E1" to="D3D2"/>
    <trip id="420" depart="525.00" from="E0D0" to="A4B4"/>
    <trip id="421" depart="526.25" from="E1E2" to="B0C0"/>
    <trip id="422" depart="527.50" from="C3C4" to="C2C1"/>
    <trip id="423" depart="528.75" from="E1E2" to="D2D1"/>
    <trip id="424" depart="530.00" from="D0C0" to="A1B1"/>
    <trip id="425" depart="531.25" from="E1D1" to="B1B2"/>
    <trip id="426" depart="532.50" from="C2C1" to="C3C4"/>
    <trip id="427" depart="533.75" from="C0B0" to="D4D3"/>
    <trip id="428" depart="535.00" from="A1B1" to="D3D2"/>
    <trip id="429" depart="536.25" from="A3A2" to="E4E3"/>
    <trip id="430" depart="537.50" from="B2B1" to="E1E0"/>
    <trip id="431" depart="538.75" from="B4B3" to="B3B2"/>
    <trip id="432" depart="540.00" from="B0A0" to="A0B0"/>
    <trip id="433" depart="541.25" from="A1A2" to="D1D0"/>
    <trip id="434" depart="542.50" from="B1A1" to="E1E2"/>
    <trip id="435" depart="543.75" from="D1E1" to="D4E4"/>
    <trip id="436" depart="545.00" from="E2E3" to="C1D1"/>
    <trip id="437" depart="546.25" from="D3E3" to="C4C3"/>
    <trip id="438" depart="547.50" from="A3A4" to="C0B0"/>
    <trip id="439" depart="548.75" from="A2A3" to="B1B2"/>
    <trip id="440" depart="550.00" from="B2B3" to="D3D4"/>
    <trip id="441" depart="551.25" from="A1B1" to="D4E4"/>
    <trip id="442" depart="552.50" from="C0D0" to="E1E2"/>
    <trip id="443" depart="553.75" from="D3D2" to="E4D4"/>
    <trip id="444" depart="555.00" from="B3B4" to="C1B1"/>
    <trip id="445" depart="556.25" from="B2B1" to="B1C1"/>
    <trip id="446" depart="557.50" from="E3E4" to="B2B1"/>
    <trip id="447" depart="558.75" from="D3C3" to="C0C1"/>
    <trip id="448" depart="560.00" from="C4C3" to="E3E2"/>
    <trip id="449" depart="561.25" from="B1B0" to="D4E4"/>
    <trip id="450" depart="562.50" from="E2E3" to="C1C2"/>
    <trip id="451" depart="563.75" from="D3E3" to="C3B3"/>
    <trip id="452" depart="565.00" from="A0B0" to="C3C2"/>
    <trip id="453" depart="566.25" from="A0A1" to="B3B4"/>
    <trip id="454" depart="567.50" from="B1B2" to="D0D1"/>
    <trip id="455" depart="568.75" from="C2C3" to="B4B3"/>
    <trip id="456" depart="570.00" from="E1E2" to="C1C0"/>
    <trip id="457" depart="571.25" from="B1B2" to="B2C2"/>
    <trip id="458" depart="572.50" from="C1D1" to="D0C0"/>
    <trip id="459" depart="573.75" from="C3D3" to="A3A4"/>
    <trip id="460" depart="575.00" from="E0E1" to="B0B1"/>
    <trip id="461" depart="576.25" from="A4B4" to="E0D0"/>
    <trip id="462" depart="577.50" from="C3B3" to="A2A1"/>
    <trip id="463" depart="578.75" from="C0C1" to="D2C2"/>
    <trip id="464" depart="580.00" from="C1D1" to="B3B2"/>
    <trip id="465" depart="581.25" from="D3E3" to="C3C2"/>
    <trip id="466" depart="582.50" from="B1B2" to="E2E3"/>
    <trip id="467" depart="583.75" from="E2D2" to="E2D2"/>
    <trip id="468" depart="585.00" from="C1B1" to="C4D4"/>
    <trip id="469" depart="586.25" from="B3B2" to="B2C2"/>
    <trip id="470" depart="587.50" from="D3D2" to="B4A4"/>
    <trip id="471" depart="588.75" from="C3C4" to="D0E0"/>
    <trip id="472" depart="590.00" from="E1D1" to="E1E2"/>
    <trip id="473" depart="591.25" from="B3B4" to="D2D1"/>
    <trip id="474" depart="592.50" from="A4B4" to="C3C2"/>
    <trip id="475" depart="593.75" from="D0C0" to="B4C4"/>
    <trip id="476" depart="595.00" from="E2E3" to="A3A2"/>
    <trip id="477" depart="596.25" from="B2B1" to="B4A4"/>
    <trip id="478" depart="597.50" from="B2A2" to="D4C4"/>
    <trip id="479" depart="598.75" from="A4A3" to="E1D1"/>
    <trip id="480" depart="600.00" from="B0B1" to="E0E1"/>
    <trip id="481" depart="601.25" from="E0D0" to="A3A4"/>
    <trip id="482" depart="602.50" from="B4A4" to="D0E0"/>
    <trip id="483" depart="603.75" from="B4B3" to="E3E4"/>
    <trip id="484" depart="605.00" from="C3C4" to="E1E0"/>
    <trip id="485" depart="606.25" from="A4A3" to="E2D2"/>
    <trip id="486" depart="607.50" from="C4B4" to="C0B0"/>
    <trip id="487" depart="608.75" from="A2A1" to="D1D0"/>
    <trip id="488" depart="610.00" from="A2B2" to="D3C3"/>
    <trip id="489" depart="611.25" from="D1D0" to="C1C0"/>
    <trip id="490" depart="612.50" from="D1D0" to="B4A4"/>
    <trip id="491" depart="613.75" from="C4D4" to="C4B4"/>
    <trip id="492" depart="615.00" from="A4A3" to="D3C3"/>
    <trip id="493" depart="616.25" from="C1C0" to="D2D1"/>
    <trip id="494" depart="617.50" from="E1E0" to="A0A1"/>
    <trip id="495" depart="618.75" from="C3C2" to="D3D2"/>
    <trip id="496" depart="620.00" from="D1D2" to="A3A2"/>
    <trip id="497" depart="621.25" from="B1B0" to="D4E4"/>
    <trip id="498" depart="622.50" from="C3C2" to="B3B2"/>
    <trip id="499" depart="623.75" from="A3A2" to="E1D1"/>
    <trip id="500" depart="625.00" from="E1E2" to="A4A3"/>
    <trip id="501" depart="626.25" from="A4B4" to="B2B1"/>
    <trip id="502" depart="627.50" from="A2A1" to="B2C2"/>
    <trip id="503" depart="628.75" from="B1A1" to="C3B3"/>
    <trip id="504" depart="630.00" from="B3C3" to="B4B3"/>
    <trip id="505" depart="631.25" from="B2B3" to="C2C1"/>