<?xml version="1.0" encoding="UTF-8"?>

<!-- generated on Tue Apr 14 10:23:24 2020 by Eclipse SUMO duarouter Version 1.2.0
<configuration xmlns:xsi="http://www.w3.org/2001/XMLSchema-instance" xsi:noNamespaceSchemaLocation="http://sumo.dlr.de/xsd/duarouterConfiguration.xsd">

    <input>
        <net-file value="test.net.xml"/>
        <route-files value="800Vehicles.trips.xml"/>
    </input>

    <output>
        <output-file value="800Vehicles.rou.xml"/>
        <alternatives-output value="800Vehicles.rou.alt.xml"/>
    </output>

    <report>
        <ignore-errors value="true"/>
    </report>

</configuration>
-->

<routes xmlns:xsi="http://www.w3.org/2001/XMLSchema-instance" xsi:noNamespaceSchemaLocation="http://sumo.dlr.de/xsd/routes_file.xsd">
    <vehicle id="0" depart="0.00">
        <route edges="E3D3 D3D4"/>
    </vehicle>
    <vehicle id="1" depart="1.25">
        <route edges="C2D2 D2E2 E2E1 E1D1 D1D2 D2D3"/>
    </vehicle>
    <vehicle id="2" depart="2.50">
        <route edges="B4B3 B3B2 B2B1 B1B0 B0A0 A0A1 A1B1 B1C1"/>
    </vehicle>
    <vehicle id="3" depart="3.75">
        <route edges="E0D0 D0C0 C0C1 C1C2 C2C3 C3D3"/>
    </vehicle>
    <vehicle id="4" depart="5.00">
        <route edges="B1B0 B0A0"/>
    </vehicle>
    <vehicle id="6" depart="7.50">
        <route edges="B1C1 C1C0 C0B0 B0A0 A0A1 A1A2 A2B2 B2B1 B1A1"/>
    </vehicle>
    <vehicle id="7" depart="8.75">
        <route edges="B0B1 B1C1 C1C0 C0B0 B0A0 A0A1 A1A2 A2A3"/>
    </vehicle>
    <vehicle id="8" depart="10.00">
        <route edges="A2B2 B2C2 C2D2 D2E2 E2E1 E1D1 D1D2 D2D3 D3E3 E3E2"/>
    </vehicle>
    <vehicle id="10" depart="12.50">
        <route edges="E3D3 D3D4 D4E4 E4E3 E3E2 E2E1 E1D1 D1D2 D2E2"/>
    </vehicle>
    <vehicle id="11" depart="13.75">
        <route edges="C2D2 D2D1 D1C1 C1C2 C2C3"/>
    </vehicle>
    <vehicle id="16" depart="20.00">
        <route edges="D0C0 C0C1 C1C2"/>
    </vehicle>
    <vehicle id="19" depart="23.75">
        <route edges="D1D0 D0C0 C0B0 B0B1 B1B2 B2B3 B3C3 C3C2"/>
    </vehicle>
    <vehicle id="20" depart="25.00">
        <route edges="B0B1 B1C1 C1C0 C0B0 B0A0 A0A1 A1A2 A2B2 B2B1"/>
    </vehicle>
    <vehicle id="21" depart="26.25">
        <route edges="A2B2 B2C2 C2D2 D2E2 E2E1 E1D1"/>
    </vehicle>
    <vehicle id="23" depart="28.75">
        <route edges="D1D0 D0C0 C0C1 C1C2 C2D2 D2E2"/>
    </vehicle>
    <vehicle id="25" depart="31.25">
        <route edges="C2C3 C3D3 D3D2 D2D1 D1C1 C1B1 B1A1"/>
    </vehicle>
    <vehicle id="26" depart="32.50">
        <route edges="D3C3 C3C4 C4D4 D4E4 E4E3 E3E2 E2E1 E1E0 E0D0 D0D1"/>
    </vehicle>
    <vehicle id="27" depart="33.75">
        <route edges="C2C3 C3D3 D3D2 D2D1 D1D0 D0C0 C0B0 B0A0 A0A1 A1B1 B1B0"/>
    </vehicle>
    <vehicle id="28" depart="35.00">
        <route edges="A4B4 B4B3 B3B2 B2A2 A2A3 A3B3"/>
    </vehicle>
    <vehicle id="29" depart="36.25">
        <route edges="E2E1 E1E0"/>
    </vehicle>
    <vehicle id="30" depart="37.50">
        <route edges="D3D2 D2C2 C2C3 C3D3 D3E3 E3E2 E2E1"/>
    </vehicle>
    <vehicle id="32" depart="40.00">
        <route edges="C1C0 C0B0 B0B1 B1B2 B2B3 B3C3"/>
    </vehicle>
    <vehicle id="34" depart="42.50">
        <route edges="B1B0 B0A0 A0A1 A1A2 A2B2 B2C2 C2D2"/>
    </vehicle>
    <vehicle id="35" depart="43.75">
        <route edges="D4D3 D3D2 D2D1 D1D0 D0C0"/>
    </vehicle>
    <vehicle id="37" depart="46.25">
        <route edges="A3B3 B3C3 C3C2 C2C1 C1B1"/>
    </vehicle>
    <vehicle id="38" depart="47.50">
        <route edges="A2B2 B2C2 C2D2 D2E2 E2E1 E1D1 D1D2"/>
    </vehicle>
    <vehicle id="39" depart="48.75">
        <route edges="B0B1 B1C1 C1D1 D1E1 E1E0 E0D0"/>
    </vehicle>
    <vehicle id="41" depart="51.25">
        <route edges="C2C1 C1B1 B1B2 B2B3 B3B4 B4C4 C4D4 D4E4 E4E3 E3D3 D3D4"/>
    </vehicle>
    <vehicle id="42" depart="52.50">
        <route edges="C3D3 D3D2 D2D1 D1D0 D0C0 C0B0 B0A0 A0A1 A1B1 B1B0"/>
    </vehicle>
    <vehicle id="43" depart="53.75">
        <route edges="D2E2 E2E1 E1D1 D1D2 D2D3 D3E3 E3E2 E2D2 D2C2 C2B2 B2A2"/>
    </vehicle>
    <vehicle id="46" depart="57.50">
        <route edges="C0B0 B0A0 A0A1 A1A2 A2A3 A3B3"/>
    </vehicle>
    <vehicle id="47" depart="58.75">
        <route edges="A3A4 A4B4 B4C4 C4D4 D4D3 D3D2 D2D1 D1D0 D0C0 C0C1"/>
    </vehicle>
    <vehicle id="49" depart="61.25">
        <route edges="D2D1 D1C1 C1C2 C2C3 C3D3 D3E3 E3E2 E2D2 D2D3"/>
    </vehicle>
    <vehicle id="51" depart="63.75">
        <route edges="B2B1 B1A1 A1A2 A2A3 A3B3 B3C3 C3C2"/>
    </vehicle>
    <vehicle id="53" depart="66.25">
        <route edges="D1D2 D2D3 D3E3"/>
    </vehicle>
    <vehicle id="54" depart="67.50">
        <route edges="A3A4 A4B4 B4C4 C4D4 D4E4 E4E3 E3E2 E2E1 E1D1 D1D2"/>
    </vehicle>
    <vehicle id="55" depart="68.75">
        <route edges="D3D2 D2D1 D1D0 D0C0 C0B0 B0A0 A0A1 A1B1 B1B0"/>
    </vehicle>
    <vehicle id="57" depart="71.25">
        <route edges="D2D3 D3E3 E3E2 E2D2 D2C2 C2B2 B2A2 A2A3 A3B3"/>
    </vehicle>
    <vehicle id="58" depart="72.50">
        <route edges="B0A0 A0A1 A1A2 A2A3 A3B3 B3B2 B2A2"/>
    </vehicle>
    <vehicle id="60" depart="75.00">
        <route edges="D3C3 C3C4 C4D4 D4D3 D3D2 D2D1 D1C1 C1B1 B1B2 B2C2"/>
    </vehicle>
    <vehicle id="61" depart="76.25">
        <route edges="E1D1 D1C1 C1C2 C2C3 C3D3"/>
    </vehicle>
    <vehicle id="62" depart="77.50">
        <route edges="A3B3 B3C3 C3D3 D3E3 E3E2"/>
    </vehicle>
    <vehicle id="63" depart="78.75">
        <route edges="B1B0 B0A0 A0A1 A1B1 B1C1 C1C0"/>
    </vehicle>
    <vehicle id="64" depart="80.00">
        <route edges="D0C0 C0C1 C1C2 C2D2"/>
    </vehicle>
    <vehicle id="65" depart="81.25">
        <route edges="A3A4 A4B4 B4C4 C4C3 C3C2 C2C1"/>
    </vehicle>
    <vehicle id="66" depart="82.50">
        <route edges="C3C4 C4D4 D4D3 D3D2 D2D1 D1C1 C1C2"/>
    </vehicle>
    <vehicle id="68" depart="85.00">
        <route edges="A2B2 B2B1 B1A1 A1A2 A2A3 A3B3 B3C3 C3C2 C2B2"/>
    </vehicle>
    <vehicle id="69" depart="86.25">
        <route edges="E3E2 E2D2 D2D3 D3E3"/>
    </vehicle>
    <vehicle id="70" depart="87.50">
        <route edges="E1D1 D1D2 D2E2 E2E1 E1E0 E0D0 D0C0"/>
    </vehicle>
    <vehicle id="72" depart="90.00">
        <route edges="D1D0 D0C0 C0B0 B0A0 A0A1 A1A2 A2A3 A3A4 A4B4 B4B3 B3A3"/>
    </vehicle>
    <vehicle id="73" depart="91.25">
        <route edges="C3C2 C2B2 B2B3 B3B4 B4C4 C4D4 D4D3"/>
    </vehicle>
    <vehicle id="74" depart="92.50">
        <route edges="B1B0 B0A0 A0A1 A1A2 A2A3 A3A4 A4B4 B4C4"/>
    </vehicle>
    <vehicle id="75" depart="93.75">
        <route edges="D4D3 D3C3 C3C4 C4D4 D4E4 E4E3 E3E2 E2E1 E1D1 D1D2"/>
    </vehicle>
    <vehicle id="77" depart="96.25">
        <route edges="C2C1 C1B1 B1A1 A1A2 A2A3 A3A4 A4B4"/>
    </vehicle>
    <vehicle id="78" depart="97.50">
        <route edges="B3C3 C3C2 C2C1 C1B1 B1B2 B2C2 C2D2 D2E2"/>
    </vehicle>
    <vehicle id="79" depart="98.75">
        <route edges="B1C1 C1D1 D1E1"/>
    </vehicle>
    <vehicle id="80" depart="100.00">
        <route edges="B3B2 B2A2 A2A3 A3A4 A4B4 B4C4 C4D4 D4D3"/>
    </vehicle>
    <vehicle id="83" depart="103.75">
        <route edges="C4D4 D4D3 D3D2 D2D1 D1D0 D0C0 C0B0 B0A0"/>
    </vehicle>
    <vehicle id="84" depart="105.00">
        <route edges="B1B0 B0A0 A0A1 A1A2 A2A3 A3A4 A4B4 B4C4 C4D4 D4D3"/>
    </vehicle>
    <vehicle id="86" depart="107.50">
        <route edges="A2A3 A3B3 B3C3 C3C2 C2C1"/>
    </vehicle>
    <vehicle id="91" depart="113.75">
        <route edges="C1C2 C2D2 D2E2 E2E1 E1E0 E0D0"/>
    </vehicle>
    <vehicle id="92" depart="115.00">
        <route edges="A3A2"/>
    </vehicle>
    <vehicle id="93" depart="116.25">
        <route edges="E2D2 D2D3 D3E3 E3E2 E2E1 E1E0 E0D0 D0C0 C0C1"/>
    </vehicle>
    <vehicle id="94" depart="117.50">
        <route edges="E2D2 D2D3 D3E3 E3E2 E2E1 E1E0 E0D0 D0C0"/>
    </vehicle>
    <vehicle id="95" depart="118.75">
        <route edges="D4D3 D3C3 C3B3 B3A3 A3A4 A4B4 B4B3"/>
    </vehicle>
    <vehicle id="96" depart="120.00">
        <route edges="B3C3 C3C2 C2B2 B2B3 B3B4 B4C4 C4D4 D4E4 E4E3"/>
    </vehicle>
    <vehicle id="98" depart="122.50">
        <route edges="B4C4 C4C3 C3C2 C2C1 C1C0"/>
    </vehicle>
    <vehicle id="99" depart="123.75">
        <route edges="B4B3 B3A3 A3A4 A4B4 B4C4 C4C3 C3C2"/>
    </vehicle>
    <vehicle id="101" depart="126.25">
        <route edges="E0E1 E1E2 E2E3 E3E4 E4D4"/>
    </vehicle>
    <vehicle id="103" depart="128.75">
        <route edges="D0D1 D1E1 E1E0 E0D0 D0C0 C0B0 B0B1 B1B2 B2B3 B3B4"/>
    </vehicle>
    <vehicle id="104" depart="130.00">
        <route edges="C3C2 C2B2 B2B3 B3C3 C3D3 D3E3 E3E2 E2E1 E1D1"/>
    </vehicle>
    <vehicle id="105" depart="131.25">
        <route edges="D3D4 D4E4 E4E3 E3E2"/>
    </vehicle>
    <vehicle id="106" depart="132.50">
        <route edges="E2E1 E1E0 E0D0 D0C0 C0B0"/>
    </vehicle>
    <vehicle id="108" depart="135.00">
        <route edges="C0B0 B0B1 B1C1 C1D1 D1E1 E1E0 E0D0 D0D1 D1D2"/>
    </vehicle>
    <vehicle id="109" depart="136.25">
        <route edges="A4B4 B4C4 C4D4"/>
    </vehicle>
    <vehicle id="111" depart="138.75">
        <route edges="D4C4 C4B4 B4A4 A4A3 A3A2 A2A1 A1A0 A0B0 B0C0 C0D0 D0E0 E0E1 E1E2 E2E3"/>
    </vehicle>
    <vehicle id="112" depart="140.00">
        <route edges="E4E3 E3E2 E2D2 D2C2 C2B2 B2B3 B3C3"/>
    </vehicle>
    <vehicle id="113" depart="141.25">
        <route edges="E1E2 E2E3"/>
    </vehicle>
    <vehicle id="114" depart="142.50">
        <route edges="A3B3 B3B2 B2A2 A2A3 A3A4 A4B4 B4C4 C4D4 D4E4"/>
    </vehicle>
    <vehicle id="115" depart="143.75">
        <route edges="C1C2 C2D2 D2D1 D1D0 D0C0 C0B0 B0B1 B1C1"/>
    </vehicle>
    <vehicle id="117" depart="146.25">
        <route edges="B2B3 B3C3 C3D3 D3E3 E3E2"/>
    </vehicle>
    <vehicle id="118" depart="147.50">
        <route edges="B4C4 C4C3 C3C2 C2B2 B2A2"/>
    </vehicle>
    <vehicle id="119" depart="148.75">
        <route edges="D1E1 E1E0 E0D0 D0C0 C0B0 B0A0 A0A1 A1A2 A2A3 A3A4 A4B4 B4B3"/>
    </vehicle>
    <vehicle id="120" depart="150.00">
        <route edges="B3A3"/>
    </vehicle>
    <vehicle id="121" depart="151.25">
        <route edges="B0B1 B1C1 C1C0 C0B0 B0A0 A0A1 A1A2 A2A3"/>
    </vehicle>
    <vehicle id="122" depart="152.50">
        <route edges="B3B2 B2A2 A2A3 A3A4 A4B4 B4C4 C4D4 D4E4 E4E3 E3D3 D3D4"/>
    </vehicle>
    <vehicle id="123" depart="153.75">
        <route edges="E2D2 D2C2 C2B2 B2A2 A2A3 A3B3 B3B2 B2B1"/>
    </vehicle>
    <vehicle id="124" depart="155.00">
        <route edges="B4B3 B3A3 A3A4 A4B4 B4C4 C4D4 D4D3 D3D2 D2D1 D1D0 D0C0 C0C1"/>
    </vehicle>
    <vehicle id="125" depart="156.25">
        <route edges="B3B2 B2A2 A2A3 A3A4 A4B4 B4C4 C4D4 D4D3"/>
    </vehicle>
    <vehicle id="127" depart="158.75">
        <route edges="D1C1 C1C2 C2D2 D2E2 E2E1 E1D1"/>
    </vehicle>
    <vehicle id="128" depart="160.00">
        <route edges="A4B4 B4C4 C4D4 D4E4 E4E3"/>
    </vehicle>
    <vehicle id="131" depart="163.75">
        <route edges="A0A1 A1B1 B1C1 C1D1 D1D0"/>
    </vehicle>
    <vehicle id="132" depart="165.00">
        <route edges="B4C4 C4D4 D4D3 D3D2 D2D1 D1C1 C1C2 C2D2"/>
    </vehicle>
    <vehicle id="133" depart="166.25">
        <route edges="B3B2 B2A2 A2A3 A3B3 B3C3 C3D3 D3D2 D2C2"/>
    </vehicle>
    <vehicle id="135" depart="168.75">
        <route edges="E4E3 E3E2 E2D2 D2C2"/>
    </vehicle>
    <vehicle id="137" depart="171.25">
        <route edges="D3D4 D4E4 E4E3 E3E2"/>
    </vehicle>
    <vehicle id="139" depart="173.75">
        <route edges="B1A1 A1A2 A2A3 A3B3 B3C3 C3D3"/>
    </vehicle>
    <vehicle id="140" depart="175.00">
        <route edges="C0C1 C1C2 C2D2 D2D1 D1C1 C1B1"/>
    </vehicle>
    <vehicle id="141" depart="176.25">
        <route edges="D3E3 E3E2 E2D2 D2D3 D3D4 D4E4 E4E3 E3D3 D3C3"/>
    </vehicle>
    <vehicle id="142" depart="177.50">
        <route edges="B3A3"/>
    </vehicle>
    <vehicle id="143" depart="178.75">
        <route edges="A0A1 A1A2 A2A3 A3A4 A4B4 B4C4 C4D4 D4E4 E4E3"/>
    </vehicle>
    <vehicle id="145" depart="181.25">
        <route edges="B0B1 B1B2 B2C2"/>
    </vehicle>
    <vehicle id="151" depart="188.75">
        <route edges="E0D0 D0C0 C0C1 C1C2 C2C3 C3D3"/>
    </vehicle>
    <vehicle id="152" depart="190.00">
        <route edges="C1B1 B1B2 B2B3 B3C3 C3D3 D3E3 E3E2 E2D2 D2D3"/>
    </vehicle>
    <vehicle id="155" depart="193.75">
        <route edges="D3C3 C3C4 C4D4 D4E4 E4E3 E3E2"/>
    </vehicle>
    <vehicle id="157" depart="196.25">
        <route edges="C1C0 C0B0 B0B1 B1B2 B2B3 B3B4 B4C4 C4D4 D4E4 E4E3 E3D3 D3D4"/>
    </vehicle>
    <vehicle id="158" depart="197.50">
        <route edges="D1D0 D0C0 C0B0 B0B1 B1B2 B2B3 B3C3 C3C2"/>
    </vehicle>
    <vehicle id="159" depart="198.75">
        <route edges="D1C1 C1C2 C2C3 C3D3 D3D2"/>
    </vehicle>
    <vehicle id="160" depart="200.00">
        <route edges="E3E2 E2D2 D2C2 C2C3 C3C4 C4D4"/>
    </vehicle>
    <vehicle id="161" depart="201.25">
        <route edges="C1C0 C0B0 B0A0 A0A1 A1A2 A2A3 A3A4 A4B4 B4B3 B3A3"/>
    </vehicle>
    <vehicle id="162" depart="202.50">
        <route edges="E1E0 E0D0 D0C0 C0B0 B0A0 A0A1 A1A2 A2A3"/>
    </vehicle>
    <vehicle id="163" depart="203.75">
        <route edges="E3D3 D3D4 D4E4 E4E3 E3E2 E2E1 E1E0 E0D0 D0C0 C0B0 B0B1 B1C1"/>
    </vehicle>
    <vehicle id="164" depart="205.00">
        <route edges="E0D0 D0C0 C0B0 B0B1 B1B2 B2B3 B3C3"/>
    </vehicle>
    <vehicle id="165" depart="206.25">
        <route edges="E4E3 E3D3 D3C3 C3B3 B3A3 A3A4"/>
    </vehicle>
    <vehicle id="167" depart="208.75">
        <route edges="C2D2 D2E2"/>
    </vehicle>
    <vehicle id="168" depart="210.00">
        <route edges="C4D4 D4D3 D3D2 D2D1 D1D0 D0C0 C0B0 B0B1"/>
    </vehicle>
    <vehicle id="169" depart="211.25">
        <route edges="C1C0 C0B0"/>
    </vehicle>
    <vehicle id="171" depart="213.75">
        <route edges="D1D0 D0C0 C0B0 B0B1 B1B2 B2B3 B3B4 B4C4 C4C3"/>
    </vehicle>
    <vehicle id="172" depart="215.00">
        <route edges="C4C3 C3B3 B3B4 B4C4 C4D4 D4E4 E4E3 E3D3"/>
    </vehicle>
    <vehicle id="173" depart="216.25">
        <route edges="B2B1 B1A1 A1A2 A2A3 A3A4 A4B4 B4C4"/>
    </vehicle>
    <vehicle id="177" depart="221.25">
        <route edges="B3A3 A3A4 A4B4 B4C4 C4D4"/>
    </vehicle>
    <vehicle id="178" depart="222.50">
        <route edges="A1B1 B1C1 C1C0 C0B0 B0B1 B1B2 B2B3 B3B4"/>
    </vehicle>
    <vehicle id="180" depart="225.00">
        <route edges="B0C0 C0D0 D0E0 E0E1 E1E2 E2E3 E3E4 E4D4 D4C4 C4B4"/>
    </vehicle>
    <vehicle id="183" depart="228.75">
        <route edges="C3C4 C4D4 D4D3 D3D2"/>
    </vehicle>
    <vehicle id="184" depart="230.00">
        <route edges="B2A2"/>
    </vehicle>
    <vehicle id="186" depart="232.50">
        <route edges="E0D0 D0C0 C0C1 C1C2 C2C3 C3C4 C4D4 D4D3 D3C3"/>
    </vehicle>
    <vehicle id="187" depart="233.75">
        <route edges="C2C3 C3D3 D3D2 D2C2 C2B2 B2A2 A2A3 A3A4"/>
    </vehicle>
    <vehicle id="188" depart="235.00">
        <route edges="B2C2 C2C1 C1C0 C0B0 B0A0 A0A1"/>
    </vehicle>
    <vehicle id="189" depart="236.25">
        <route edges="C1C2 C2D2 D2D1 D1D0 D0C0 C0B0 B0A0 A0A1 A1B1"/>
    </vehicle>
    <vehicle id="190" depart="237.50">
        <route edges="B3B2 B2A2 A2A3 A3A4 A4B4 B4C4 C4C3"/>
    </vehicle>
    <vehicle id="191" depart="238.75">
        <route edges="B3B2 B2B1 B1B0 B0A0 A0A1 A1B1 B1C1 C1D1 D1E1 E1E0 E0D0"/>
    </vehicle>
    <vehicle id="192" depart="240.00">
        <route edges="E2E1 E1D1 D1D2 D2D3 D3D4 D4E4 E4E3"/>
    </vehicle>
    <vehicle id="194" depart="242.50">
        <route edges="B0B1 B1C1 C1C0 C0B0 B0A0 A0A1 A1A2 A2A3 A3A4"/>
    </vehicle>
    <vehicle id="195" depart="243.75">
        <route edges="D0D1 D1E1 E1E0 E0D0 D0C0 C0B0 B0B1 B1B2 B2B3 B3C3"/>
    </vehicle>
    <vehicle id="196" depart="245.00">
        <route edges="D2E2 E2E1 E1D1 D1C1 C1C2 C2C3 C3D3"/>
    </vehicle>
    <vehicle id="197" depart="246.25">
        <route edges="D0C0 C0B0 B0A0 A0A1 A1A2 A2A3 A3A4 A4B4"/>
    </vehicle>
    <vehicle id="198" depart="247.50">
        <route edges="D2C2 C2C3 C3D3 D3D2 D2D1 D1D0 D0C0"/>
    </vehicle>
    <vehicle id="199" depart="248.75">
        <route edges="D2C2 C2C3 C3D3 D3D2 D2D1 D1D0"/>
    </vehicle>
    <vehicle id="200" depart="250.00">
        <route edges="A3B3 B3B2 B2B1 B1A1"/>
    </vehicle>
    <vehicle id="201" depart="251.25">
        <route edges="C4C3 C3B3 B3B4 B4C4 C4D4 D4E4 E4E3 E3E2 E2E1 E1E0 E0D0 D0D1"/>
    </vehicle>
    <vehicle id="203" depart="253.75">
        <route edges="D3D2 D2D1 D1D0 D0C0 C0B0 B0A0"/>
    </vehicle>
    <vehicle id="204" depart="255.00">
        <route edges="C3C2 C2B2 B2B3 B3B4 B4C4 C4D4 D4E4"/>
    </vehicle>
    <vehicle id="206" depart="257.50">
        <route edges="C0B0 B0B1 B1B2 B2C2 C2D2"/>
    </vehicle>
    <vehicle id="207" depart="258.75">
        <route edges="C1D1 D1E1 E1E0 E0D0 D0D1 D1D2 D2E2"/>
    </vehicle>
    <vehicle id="208" depart="260.00">
        <route edges="A1B1 B1B0 B0A0 A0A1 A1A2 A2A3 A3B3 B3B2 B2A2"/>
    </vehicle>
    <vehicle id="209" depart="261.25">
        <route edges="C3D3 D3E3 E3E2 E2E1 E1E0"/>
    </vehicle>
    <vehicle id="210" depart="262.50">
        <route edges="C4D4 D4D3 D3D2 D2D1 D1C1 C1B1 B1A1 A1A2 A2B2"/>
    </vehicle>
    <vehicle id="212" depart="265.00">
        <route edges="C2B2 B2B3 B3C3 C3C2 C2C1 C1B1 B1A1 A1A2"/>
    </vehicle>
    <vehicle id="214" depart="267.50">
        <route edges="B3A3 A3A4 A4B4 B4C4 C4D4 D4D3"/>
    </vehicle>
    <vehicle id="215" depart="268.75">
        <route edges="C2C3 C3C4 C4D4 D4D3 D3C3 C3B3"/>
    </vehicle>
    <vehicle id="216" depart="270.00">
        <route edges="D4D3 D3C3 C3B3 B3B4 B4C4"/>
    </vehicle>
    <vehicle id="217" depart="271.25">
        <route edges="D2D3 D3E3 E3E2 E2E1 E1D1 D1C1 C1C2 C2D2 D2D1"/>
    </vehicle>
    <vehicle id="219" depart="273.75">
        <route edges="C4D4 D4D3 D3D2 D2C2 C2B2 B2A2 A2A3"/>
    </vehicle>
    <vehicle id="220" depart="275.00">
        <route edges="D2D3 D3E3 E3E2 E2E1 E1E0 E0D0 D0C0 C0B0 B0B1 B1C1"/>
    </vehicle>
    <vehicle id="222" depart="277.50">
        <route edges="C0C1 C1C2 C2C3 C3C4"/>
    </vehicle>
    <vehicle id="223" depart="278.75">
        <route edges="D2D1 D1C1 C1C2 C2C3 C3D3"/>
    </vehicle>
    <vehicle id="226" depart="282.50">
        <route edges="D2E2 E2E1 E1E0"/>
    </vehicle>
    <vehicle id="227" depart="283.75">
        <route edges="B1B2 B2B3 B3C3"/>
    </vehicle>
    <vehicle id="228" depart="285.00">
        <route edges="A4B4 B4C4 C4D4 D4D3 D3D2 D2D1 D1C1"/>
    </vehicle>
    <vehicle id="229" depart="286.25">
        <route edges="E2E1 E1E0 E0D0 D0C0 C0B0 B0A0"/>
    </vehicle>
    <vehicle id="230" depart="287.50">
        <route edges="A4A3"/>
    </vehicle>
    <vehicle id="233" depart="291.25">
        <route edges="E2D2 D2D3 D3E3 E3E2 E2E1 E1E0 E0D0 D0C0"/>
    </vehicle>
    <vehicle id="234" depart="292.50">
        <route edges="D3D2 D2C2 C2C3 C3D3 D3E3 E3E2 E2E1 E1E0 E0D0"/>
    </vehicle>
    <vehicle id="235" depart="293.75">
        <route edges="B3B2 B2A2 A2A3 A3A4 A4B4 B4C4 C4D4 D4D3 D3C3"/>
    </vehicle>
    <vehicle id="236" depart="295.00">
        <route edges="C0B0 B0B1 B1C1 C1D1 D1E1 E1E0 E0D0"/>
    </vehicle>
    <vehicle id="238" depart="297.50">
        <route edges="A0B0"/>
    </vehicle>
    <vehicle id="240" depart="300.00">
        <route edges="C2D2 D2D1 D1C1 C1C2 C2C3 C3D3 D3D2 D2C2 C2B2"/>
    </vehicle>
    <vehicle id="241" depart="301.25">
        <route edges="D2E2 E2E1 E1D1 D1C1 C1B1 B1B2 B2B3 B3C3 C3C2"/>
    </vehicle>
    <vehicle id="242" depart="302.50">
        <route edges="E4E3 E3D3 D3C3 C3C4 C4D4 D4D3"/>
    </vehicle>
    <vehicle id="243" depart="303.75">
        <route edges="C4C3 C3C2 C2C1 C1B1"/>
    </vehicle>
    <vehicle id="245" depart="306.25">
        <route edges="B2B3 B3C3 C3C2 C2C1 C1B1 B1B2 B2C2 C2D2 D2E2"/>
    </vehicle>
    <vehicle id="246" depart="307.50">
        <route edges="E3E2 E2D2 D2D3 D3D4 D4E4 E4E3 E3D3 D3C3"/>
    </vehicle>
    <vehicle id="247" depart="308.75">
        <route edges="C0C1 C1D1 D1D0"/>
    </vehicle>
    <vehicle id="249" depart="311.25">
        <route edges="B2A2 A2A3 A3B3 B3C3 C3D3 D3D2 D2D1 D1D0"/>
    </vehicle>
    <vehicle id="250" depart="312.50">
        <route edges="E3E2 E2D2 D2C2 C2C3 C3C4 C4D4 D4D3"/>
    </vehicle>
    <vehicle id="251" depart="313.75">
        <route edges="B2C2 C2C1 C1B1 B1A1 A1A2 A2B2 B2B1"/>
    </vehicle>
    <vehicle id="253" depart="316.25">
        <route edges="B0A0 A0A1 A1A2 A2B2 B2C2 C2D2 D2D1"/>
    </vehicle>
    <vehicle id="254" depart="317.50">
        <route edges="B3B2 B2A2 A2A3 A3B3"/>
    </vehicle>
    <vehicle id="255" depart="318.75">
        <route edges="B2A2 A2A3 A3B3 B3C3 C3D3 D3D2 D2C2 C2C3"/>
    </vehicle>
    <vehicle id="256" depart="320.00">
        <route edges="B4B3 B3A3 A3A4 A4B4 B4C4 C4D4 D4E4 E4E3"/>
    </vehicle>
    <vehicle id="259" depart="323.75">
        <route edges="B0A0 A0A1 A1B1 B1C1 C1D1 D1E1 E1E0 E0D0"/>
    </vehicle>
    <vehicle id="260" depart="325.00">
        <route edges="C3D3 D3D2 D2D1 D1C1 C1B1 B1B2"/>
    </vehicle>
    <vehicle id="261" depart="326.25">
        <route edges="A1A2 A2B2 B2C2 C2D2 D2D1"/>
    </vehicle>
    <vehicle id="262" depart="327.50">
        <route edges="D2C2 C2C3 C3D3 D3E3 E3E2 E2E1 E1D1 D1D2"/>
    </vehicle>
    <vehicle id="263" depart="328.75">
        <route edges="A1A2 A2B2 B2C2 C2D2 D2E2 E2E1 E1D1"/>
    </vehicle>
    <vehicle id="264" depart="330.00">
        <route edges="A4B4 B4C4 C4D4 D4E4 E4E3 E3E2 E2E1"/>
    </vehicle>
    <vehicle id="265" depart="331.25">
        <route edges="E0E1 E1E2 E2E3"/>
    </vehicle>
    <vehicle id="266" depart="332.50">
        <route edges="E3E2 E2D2 D2C2 C2B2 B2A2 A2A3 A3B3"/>
    </vehicle>
    <vehicle id="268" depart="335.00">
        <route edges="D2E2 E2E1 E1D1"/>
    </vehicle>
    <vehicle id="269" depart="336.25">
        <route edges="D1C1 C1C2 C2C3 C3C4 C4D4"/>
    </vehicle>
    <vehicle id="271" depart="338.75">
        <route edges="B4C4 C4D4 D4E4 E4E3"/>
    </vehicle>
    <vehicle id="272" depart="340.00">
        <route edges="A1A2 A2A3 A3B3 B3C3 C3D3"/>
    </vehicle>
    <vehicle id="275" depart="343.75">
        <route edges="C4D4 D4D3 D3C3"/>
    </vehicle>
    <vehicle id="277" depart="346.25">
        <route edges="B1C1 C1D1 D1D0"/>
    </vehicle>
    <vehicle id="278" depart="347.50">
        <route edges="D4E4 E4E3 E3E2 E2E1 E1E0 E0D0 D0C0 C0C1 C1D1 D1D0"/>
    </vehicle>
    <vehicle id="279" depart="348.75">
        <route edges="C0B0 B0A0 A0A1 A1A2 A2A3 A3B3"/>
    </vehicle>
    <vehicle id="280" depart="350.00">
        <route edges="D2D3 D3E3 E3E2 E2D2 D2C2"/>
    </vehicle>
    <vehicle id="281" depart="351.25">
        <route edges="C4C3 C3B3 B3B4 B4C4 C4D4"/>
    </vehicle>
    <vehicle id="282" depart="352.50">
        <route edges="D2D3 D3D4 D4E4 E4E3 E3D3 D3C3"/>
    </vehicle>
    <vehicle id="283" depart="353.75">
        <route edges="B3C3 C3C2 C2C1 C1B1"/>
    </vehicle>
    <vehicle id="284" depart="355.00">
        <route edges="D1D2 D2D3 D3E3 E3E2 E2D2 D2C2 C2B2 B2A2 A2A3 A3B3"/>
    </vehicle>
    <vehicle id="285" depart="356.25">
        <route edges="D2D1 D1C1 C1B1 B1B2 B2B3"/>
    </vehicle>
    <vehicle id="286" depart="357.50">
        <route edges="D1D0 D0C0 C0B0 B0A0 A0A1 A1A2 A2B2 B2B1 B1A1"/>
    </vehicle>
    <vehicle id="287" depart="358.75">
        <route edges="D2D1 D1D0 D0C0 C0B0"/>
    </vehicle>
    <vehicle id="288" depart="360.00">
        <route edges="D4E4 E4E3 E3E2 E2D2"/>
    </vehicle>
    <vehicle id="290" depart="362.50">
        <route edges="D4D3 D3D2 D2D1 D1D0 D0C0 C0B0 B0A0 A0A1 A1B1 B1B0"/>
    </vehicle>
    <vehicle id="291" depart="363.75">
        <route edges="B0A0 A0A1 A1B1 B1C1 C1C0 C0B0 B0B1"/>
    </vehicle>
    <vehicle id="292" depart="365.00">
        <route edges="D2D3 D3E3 E3E2 E2D2"/>
    </vehicle>
    <vehicle id="293" depart="366.25">
        <route edges="D3E3 E3E2 E2D2 D2C2 C2B2 B2A2 A2A3 A3A4 A4B4 B4B3"/>
    </vehicle>
    <vehicle id="294" depart="367.50">
        <route edges="A3A4 A4B4 B4C4 C4D4 D4E4 E4E3"/>
    </vehicle>
    <vehicle id="295" depart="368.75">
        <route edges="E0D0 D0C0 C0C1 C1C2 C2C3 C3D3"/>
    </vehicle>
    <vehicle id="296" depart="370.00">
        <route edges="A2A3 A3B3 B3B2 B2B1 B1A1 A1A2 A2B2 B2C2 C2D2 D2E2"/>
    </vehicle>
    <vehicle id="297" depart="371.25">
        <route edges="D3E3 E3E2 E2E1 E1E0 E0D0"/>
    </vehicle>
    <vehicle id="298" depart="372.50">
        <route edges="B4C4 C4C3 C3C2 C2C1 C1B1 B1B2 B2C2"/>
    </vehicle>
    <vehicle id="300" depart="375.00">
        <route edges="D4E4 E4E3 E3E2 E2D2 D2C2 C2C3"/>
    </vehicle>
    <vehicle id="302" depart="377.50">
        <route edges="B3B4 B4C4 C4C3 C3B3 B3A3 A3A4"/>
    </vehicle>
    <vehicle id="304" depart="380.00">
        <route edges="C4C3 C3B3 B3B4 B4C4 C4D4 D4E4 E4E3"/>
    </vehicle>
    <vehicle id="305" depart="381.25">
        <route edges="B2B3 B3C3 C3D3 D3D2 D2D1"/>
    </vehicle>
    <vehicle id="306" depart="382.50">
        <route edges="B1C1 C1C0 C0B0 B0A0 A0A1 A1A2 A2A3 A3A4 A4B4 B4B3 B3A3"/>
    </vehicle>
    <vehicle id="308" depart="385.00">
        <route edges="E1E2 E2E3 E3E4 E4D4 D4C4 C4B4 B4A4 A4A3 A3A2 A2A1 A1A0 A0B0 B0C0 C0D0 D0E0 E0E1"/>
    </vehicle>
    <vehicle id="311" depart="388.75">
        <route edges="B4B3 B3A3 A3A4 A4B4"/>
    </vehicle>
    <vehicle id="313" depart="391.25">
        <route edges="C4D4 D4E4 E4E3 E3E2 E2E1 E1E0"/>
    </vehicle>
    <vehicle id="314" depart="392.50">
        <route edges="E0D0 D0C0 C0B0 B0A0 A0A1 A1B1 B1B0"/>
    </vehicle>
    <vehicle id="315" depart="393.75">
        <route edges="E0D0 D0D1 D1D2"/>
    </vehicle>
    <vehicle id="316" depart="395.00">
        <route edges="E1E2 E2E3 E3E4 E4D4 D4C4 C4B4 B4A4 A4A3 A3A2 A2A1 A1A0 A0B0 B0C0"/>
    </vehicle>
    <vehicle id="318" depart="397.50">
        <route edges="D2D3 D3E3 E3E2 E2E1 E1D1"/>
    </vehicle>
    <vehicle id="320" depart="400.00">
        <route edges="E1E0 E0D0 D0C0 C0B0 B0A0 A0A1"/>
    </vehicle>
    <vehicle id="322" depart="402.50">
        <route edges="C0C1 C1D1 D1D0 D0C0 C0B0 B0B1 B1B2 B2C2 C2C1"/>
    </vehicle>
    <vehicle id="325" depart="406.25">
        <route edges="D2D3 D3E3 E3E2 E2E1 E1D1 D1C1 C1B1 B1B2"/>
    </vehicle>
    <vehicle id="327" depart="408.75">
        <route edges="B1A1 A1A2 A2A3 A3A4 A4B4 B4B3 B3A3"/>
    </vehicle>
    <vehicle id="328" depart="410.00">
        <route edges="E0D0 D0C0 C0B0 B0A0 A0A1 A1A2"/>
    </vehicle>
    <vehicle id="329" depart="411.25">
        <route edges="E1E0 E0D0 D0C0 C0B0 B0A0 A0A1 A1A2 A2A3 A3A4 A4B4 B4B3"/>
    </vehicle>
    <vehicle id="333" depart="416.25">
        <route edges="E1D1 D1C1 C1B1 B1A1 A1A2 A2A3 A3B3 B3B2 B2A2"/>
    </vehicle>
    <vehicle id="334" depart="417.50">
        <route edges="A4B4 B4C4 C4C3 C3C2 C2C1 C1C0 C0B0 B0B1"/>
    </vehicle>
    <vehicle id="335" depart="418.75">
        <route edges="E4E3 E3E2 E2E1 E1D1 D1C1 C1B1 B1B2 B2C2"/>
    </vehicle>
    <vehicle id="336" depart="420.00">
        <route edges="E1E0 E0D0 D0C0 C0C1 C1C2 C2C3 C3C4"/>
    </vehicle>
    <vehicle id="337" depart="421.25">
        <route edges="E3E2 E2D2 D2C2 C2B2 B2A2"/>
    </vehicle>
    <vehicle id="338" depart="422.50">
        <route edges="C4D4 D4E4 E4E3 E3E2 E2E1 E1E0 E0D0 D0D1"/>
    </vehicle>
    <vehicle id="339" depart="423.75">
        <route edges="C2B2 B2B3 B3B4 B4C4 C4D4 D4E4 E4E3 E3D3"/>
    </vehicle>
    <vehicle id="340" depart="425.00">
        <route edges="A2B2 B2B1 B1A1 A1A2 A2A3 A3B3 B3C3 C3D3"/>
    </vehicle>
    <vehicle id="341" depart="426.25">
        <route edges="A2A3 A3B3 B3B2 B2B1 B1B0 B0A0"/>
    </vehicle>
    <vehicle id="342" depart="427.50">
        <route edges="D0C0 C0B0 B0A0"/>
    </vehicle>
    <vehicle id="343" depart="428.75">
        <route edges="D3D2 D2D1 D1C1 C1B1 B1A1"/>
    </vehicle>
    <vehicle id="344" depart="430.00">
        <route edges="C3D3 D3D2 D2C2 C2B2 B2A2 A2A3 A3A4 A4B4 B4B3"/>
    </vehicle>
    <vehicle id="345" depart="431.25">
        <route edges="B4B3 B3A3 A3A4 A4B4 B4C4 C4D4 D4E4 E4E3 E3E2 E2D2 D2D3"/>
    </vehicle>
    <vehicle id="347" depart="433.75">
        <route edges="D1C1 C1B1 B1A1 A1A2 A2A3 A3A4 A4B4 B4B3 B3A3"/>
    </vehicle>
    <vehicle id="348" depart="435.00">
        <route edges="B0A0 A0A1 A1B1 B1C1 C1D1 D1E1 E1E0"/>
    </vehicle>
    <vehicle id="349" depart="436.25">
        <route edges="C4C3 C3B3 B3A3 A3A4 A4B4 B4B3 B3B2 B2B1"/>
    </vehicle>
    <vehicle id="352" depart="440.00">
        <route edges="C3B3 B3B4"/>
    </vehicle>
    <vehicle id="355" depart="443.75">
        <route edges="B0B1 B1B2 B2C2"/>
    </vehicle>
    <vehicle id="359" depart="448.75">
        <route edges="C4B4 B4A4 A4A3 A3A2 A2A1 A1A0 A0B0 B0C0"/>
    </vehicle>
    <vehicle id="360" depart="450.00">
        <route edges="B3B4 B4C4 C4D4 D4E4 E4E3 E3E2 E2D2"/>
    </vehicle>
    <vehicle id="361" depart="451.25">
        <route edges="E1D1 D1C1 C1C2 C2D2"/>
    </vehicle>
    <vehicle id="363" depart="453.75">
        <route edges="A0A1 A1A2 A2A3 A3A4 A4B4 B4C4 C4C3 C3B3 B3B4"/>
    </vehicle>
    <vehicle id="364" depart="455.00">
        <route edges="C4C3 C3B3 B3A3 A3A4 A4B4 B4B3 B3B2 B2B1 B1B0"/>
    </vehicle>
    <vehicle id="366" depart="457.50">
        <route edges="B1C1 C1C0 C0B0 B0A0 A0A1 A1A2 A2A3 A3A4 A4B4 B4B3"/>
    </vehicle>
    <vehicle id="367" depart="458.75">
        <route edges="E3D3 D3C3 C3C4"/>
    </vehicle>
    <vehicle id="368" depart="460.00">
        <route edges="B3B2 B2B1 B1B0 B0A0 A0A1"/>
    </vehicle>
    <vehicle id="369" depart="461.25">
        <route edges="B3B2 B2B1 B1B0 B0A0 A0A1 A1B1 B1C1 C1C0"/>
    </vehicle>
    <vehicle id="370" depart="462.50">