<configuration>
    <input>
       <net-file value="sumolympics.net.xml"/>
       <route-files value="sumolympics.rou.xml,sumolympicWalks.rou.xml"/>
    </input>
</configuration>

