<?xml version="1.0" encoding="UTF-8"?>
<!-- generated on 2020-04-14 10:13:01.771342 by $Id$
  options: -n test.net.xml -o 300Vehicles.trips.xml -b 0 -e 1000 -p 3.33
-->
<routes xmlns:xsi="http://www.w3.org/2001/XMLSchema-instance" xsi:noNamespaceSchemaLocation="http://sumo.dlr.de/xsd/routes_file.xsd">
    <trip id="0" depart="0.00" from="D1D0" to="B4A4"/>
    <trip id="1" depart="3.33" from="E3E2" to="C1B1"/>
    <trip id="2" depart="6.66" from="C2C1" to="D1D2"/>
    <trip id="3" depart="9.99" from="E2D2" to="D4D3"/>
    <trip id="4" depart="13.32" from="B1A1" to="B1B0"/>
    <trip id="5" depart="16.65" from="D4D3" to="C3D3"/>
    <trip id="6" depart="19.98" from="E2E3" to="A1A0"/>
    <trip id="7" depart="23.31" from="D3C3" to="B4A4"/>
    <trip id="8" depart="26.64" from="C0C1" to="E3E4"/>
    <trip id="9" depart="29.97" from="C2C1" to="C3D3"/>
    <trip id="10" depart="33.30" from="E2E1" to="D3D4"/>
    <trip id="11" depart="36.63" from="E1D1" to="D3D4"/>
    <trip id="12" depart="39.96" from="C1D1" to="B2B1"/>
    <trip id="13" depart="43.29" from="B4C4" to="E1E0"/>
    <trip id="14" depart="46.62" from="A0A1" to="E2E3"/>
    <trip id="15" depart="49.95" from="E0D0" to="C1C2"/>
    <trip id="16" depart="53.28" from="C3C4" to="E3D3"/>
    <trip id="17" depart="56.61" from="E3D3" to="E1E0"/>
    <trip id="18" depart="59.94" from="B4A4" to="B2A2"/>
    <trip id="19" depart="63.27" from="D0C0" to="C3C4"/>
    <trip id="20" depart="66.60" from="E1D1" to="A0B0"/>
    <trip id="21" depart="69.93" from="D4D3" to="D1E1"/>
    <trip id="22" depart="73.26" from="C2C1" to="E2E3"/>
    <trip id="23" depart="76.59" from="B0A0" to="C3D3"/>
    <trip id="24" depart="79.92" from="E3E4" to="C1B1"/>
    <trip id="25" depart="83.25" from="A2A3" to="E4D4"/>
    <trip id="26" depart="86.58" from="C0D0" to="E4D4"/>
    <trip id="27" depart="89.91" from="B3A3" to="A2A3"/>
    <trip id="28" depart="93.24" from="B3A3" to="B2A2"/>
    <trip id="29" depart="96.57" from="E0E1" to="A0A1"/>
    <trip id="30" depart="99.90" from="A2A3" to="B1B2"/>
    <trip id="31" depart="103.23" from="D3D2" to="E0E1"/>
    <trip id="32" depart="106.56" from="B3C3" to="D2C2"/>
    <trip id="33" depart="109.89" from="E0E1" to="D1D2"/>
    <trip id="34" depart="113.22" from="A2A1" to="B2C2"/>
    <trip id="35" depart="116.55" from="B3A3" to="C2D2"/>
    <trip id="36" depart="119.88" from="E4D4" to="E0E1"/>
    <trip id="37" depart="123.21" from="C2B2" to="C3B3"/>
    <trip id="38" depart="126.54" from="B1B0" to="C0C1"/>
    <trip id="39" depart="129.87" from="E2E1" to="B4C4"/>
    <trip id="40" depart="133.20" from="C4C3" to="C3D3"/>
    <trip id="41" depart="136.53" from="D2D1" to="B2C2"/>
    <trip id="42" depart="139.86" from="E1E0" to="D3E3"/>
    <trip id="43" depart="143.19" from="D2D1" to="D3D4"/>
    <trip id="44" depart="146.52" from="C3B3" to="B3A3"/>
    <trip id="45" depart="149.85" from="A1B1" to="B1C1"/>
    <trip id="46" depart="153.18" from="C2C1" to="C2C3"/>
    <trip id="47" depart="156.51" from="B3A3" to="C1D1"/>
    <trip id="48" depart="159.84" from="C4D4" to="D3D4"/>
    <trip id="49" depart="163.17" from="E3E2" to="A1A2"/>
    <trip id="50" depart="166.50" from="B4C4" to="D2E2"/>
    <trip id="51" depart="169.83" from="A3A4" to="B1C1"/>
    <trip id="52" depart="173.16" from="C3D3" to="B0C0"/>
    <trip id="53" depart="176.49" from="D4D3" to="B2B1"/>
    <trip id="54" depart="179.82" from="C3C4" to="B0A0"/>
    <trip id="55" depart="183.15" from="C0D0" to="D1E1"/>
    <trip id="56" depart="186.48" from="A3A4" to="B2B3"/>
    <trip id="57" depart="189.81" from="D4C4" to="B3B4"/>
    <trip id="58" depart="193.14" from="B2C2" to="B0B1"/>
    <trip id="59" depart="196.47" from="C3C4" to="B3C3"/>
    <trip id="60" depart="199.80" from="C2C3" to="C3B3"/>
    <trip id="61" depart="203.13" from="D1E1" to="E4D4"/>
    <trip id="62" depart="206.46" from="C3C2" to="C4D4"/>
    <trip id="63" depart="209.79" from="D3D2" to="D0E0"/>
    <trip id="64" depart="213.12" from="A4A3" to="B3C3"/>
    <trip id="65" depart="216.45" from="D2D3" to="A3A4"/>
    <trip id="66" depart="219.78" from="B1B0" to="C2B2"/>
    <trip id="67" depart="223.11" from="E2E3" to="C3D3"/>
    <trip id="68" depart="226.44" from="C3B3" to="B1C1"/>
    <trip id="69" depart="229.77" from="C2C1" to="C4C3"/>
    <trip id="70" depart="233.10" from="C3D3" to="B3B4"/>
    <trip id="71" depart="236.43" from="D2D1" to="B4B3"/>
    <trip id="72" depart="239.76" from="D0D1" to="C1D1"/>
    <trip id="73" depart="243.09" from="C0B0" to="C4D4"/>
    <trip id="74" depart="246.42" from="A0A1" to="C1B1"/>
    <trip id="75" depart="249.75" from="E4D4" to="B4A4"/>
    <trip id="76" depart="253.08" from="C1B1" to="A2A1"/>
    <trip id="77" depart="256.41" from="A0A1" to="B1B2"/>
    <trip id="78" depart="259.74" from="C2B2" to="C2C1"/>
    <trip id="79" depart="263.07" from="D1D2" to="D3D2"/>
    <trip id="80" depart="266.40" from="C2D2" to="E3E2"/>
    <trip id="81" depart="269.73" from="B3C3" to="D3D4"/>
    <trip id="82" depart="273.06" from="B3B2" to="E0E1"/>
    <trip id="83" depart="276.39" from="B1C1" to="B1C1"/>
    <trip id="84" depart="279.72" from="B3C3" to="D3E3"/>
    <trip id="85" depart="283.05" from="C2C3" to="C1C2"/>
    <trip id="86" depart="286.38" from="D0E0" to="E3D3"/>
    <trip id="87" depart="289.71" from="A3B3" to="E0E1"/>
    <trip id="88" depart="293.04" from="A4A3" to="B3B2"/>
    <trip id="89" depart="296.37" from="B0B1" to="B4B3"/>
    <trip id="90" depart="299.70" from="D4E4" to="B1B2"/>
    <trip id="91" depart="303.03" from="C3C4" to="B3B4"/>
    <trip id="92" depart="306.36" from="C1D1" to="A3A4"/>
    <trip id="93" depart="309.69" from="C3D3" to="C2D2"/>
    <trip id="94" depart="313.02" from="D3D2" to="E4D4"/>
    <trip id="95" depart="316.35" from="E2D2" to="A3A4"/>
    <trip id="96" depart="319.68" from="E1E0" to="C2D2"/>
    <trip id="97" depart="323.01" from="C3B3" to="A3A4"/>
    <trip id="98" depart="326.34" from="D4E4" to="C3C2"/>
    <trip id="99" depart="329.67" from="D1D0" to="B3B2"/>
    <trip id="100" depart="333.00" from="C2C1" to="E0D0"/>
    <trip id="101" depart="336.33" from="E1D1" to="C2D2"/>
    <trip id="102" depart="339.66" from="C3C4" to="A3B3"/>
    <trip id="103" depart="342.99" from="B3B4" to="D2C2"/>
    <trip id="104" depart="346.32" from="B0B1" to="D2E2"/>
    <trip id="105" depart="349.65" from="D1E1" to="A0B0"/>
    <trip id="106" depart="352.98" from="E4E3" to="E1E0"/>
    <trip id="107" depart="356.31" from="D2D1" to="A2A3"/>
    <trip id="108" depart="359.64" from="C1C2" to="A2B2"/>
    <trip id="109" depart="362.97" from="D2C2" to="D1E1"/>
    <trip id="110" depart="366.30" from="D0C0" to="D0D1"/>
    <trip id="111" depart="369.63" from="C1C0" to="E1E0"/>
    <trip id="112" depart="372.96" from="C1B1" to="D0D1"/>
    <trip id="113" depart="376.29" from="A0B0" to="E2E3"/>
    <trip id="114" depart="379.62" from="E1D1" to="E3E2"/>
    <trip id="115" depart="382.95" from="A1A0" to="E4E3"/>
    <trip id="116" depart="386.28" from="B0A0" to="C1C0"/>
    <trip id="117" depart="389.61" from="D4C4" to="B2B3"/>
    <trip id="118" depart="392.94" from="D2E2" to="A2A3"/>
    <trip id="119" depart="396.27" from="E2E3" to="B2B3"/>
    <trip id="120" depart="399.60" from="A2B2" to="A1A2"/>
    <trip id="121" depart="402.93" from="B0B1" to="C3D3"/>
    <trip id="122" depart="406.26" from="C2D2" to="C1B1"/>
    <trip id="123" depart="409.59" from="C3C2" to="C4D4"/>
    <trip id="124" depart="412.92" from="B3C3" to="C3B3"/>
    <trip id="125" depart="416.25" from="A0A1" to="A2A3"/>
    <trip id="126" depart="419.58" from="B3A3" to="D1E1"/>
    <trip id="127" depart="422.91" from="E4D4" to="D1D0"/>
    <trip id="128" depart="426.24" from="A4A3" to="B4C4"/>
    <trip id="129" depart="429.57" from="E3E4" to="C1C0"/>
    <trip id="130" depart="432.90" from="C0D0" to="B4A4"/>
    <trip id="131" depart="436.23" from="E0D0" to="A0B0"/>
    <trip id="132" depart="439.56" from="B3B4" to="A3A2"/>
    <trip id="133" depart="442.89" from="C3B3" to="C3C2"/>
    <trip id="134" depart="446.22" from="D3D4" to="E1E0"/>
    <trip id="135" depart="449.55" from="D4C4" to="D3C3"/>
    <trip id="136" depart="452.88" from="E1E2" to="C3D3"/>
    <trip id="137" depart="456.21" from="A3A4" to="C3C4"/>
    <trip id="138" depart="459.54" from="A0A1" to="C2D2"/>
    <trip id="139" depart="462.87" from="B1A1" to="B3B2"/>
    <trip id="140" depart="466.20" from="B3C3" to="B3B2"/>
    <trip id="141" depart="469.53" from="C3C2" to="A1A2"/>
    <trip id="142" depart="472.86" from="B1A1" to="D3D4"/>
    <trip id="143" depart="476.19" from="D1C1" to="B1B2"/>
    <trip id="144" depart="479.52" from="A4B4" to="C4B4"/>
    <trip id="145" depart="482.85" from="B2C2" to="B1B2"/>
    <trip id="146" depart="486.18" from="B3B4" to="B0C0"/>
    <trip id="147" depart="489.51" from="A4B4" to="B2C2"/>
    <trip id="148" depart="492.84" from="E4E3" to="E0E1"/>
    <trip id="149" depart="496.17" from="A0B0" to="B4A4"/>
    <trip id="150" depart="499.50" from="C0D0" to="B2C2"/>
    <trip id="151" depart="502.83" from="A0B0" to="A2A3"/>
    <trip id="152" depart="506.16" from="E4E3" to="E0E1"/>
    <trip id="153" depart="509.49" from="B3B4" to="D0E0"/>
    <trip id="154" depart="512.82" from="B1A1" to="D0C0"/>
    <trip id="155" depart="516.15" from="A4A3" to="C3C4"/>
    <trip id="156" depart="519.48" from="C2D2" to="B2B3"/>
    <trip id="157" depart="522.81" from="C0C1" to="B3C3"/>
    <trip id="158" depart="526.14" from="A4B4" to="E0D0"/>
    <trip id="159" depart="529.47" from="D1D0" to="B3C3"/>
    <trip id="160" depart="532.80" from="B2C2" to="D1D0"/>
    <trip id="161" depart="536.13" from="A2A1" to="D1D2"/>
    <trip id="162" depart="539.46" from="C1C0" to="B3A3"/>
    <trip id="163" depart="542.79" from="C1C0" to="D4C4"/>
    <trip id="164" depart="546.12" from="A0A1" to="E3E4"/>
    <trip id="165" depart="549.45" from="C3C4" to="C4C3"/>
    <trip id="166" depart="552.78" from="E2E1" to="E3E4"/>
    <trip id="167" depart="556.11" from="A4B4" to="C3B3"/>
    <trip id="168" depart="559.44" from="E4E3" to="C3D3"/>
    <trip id="169" depart="562.77" from="D0E0" to="E3E2"/>
    <trip id="170" depart="566.10" from="C3C4" to="B1B0"/>
    <trip id="171" depart="569.43" from="C0C1" to="D3E3"/>
    <trip id="172" depart="572.76" from="C1C0" to="D2C2"/>
    <trip id="173" depart="576.09" from="C3C2" to="A2A1"/>
    <trip id="174" depart="579.42" from="E4D4" to="C2B2"/>
    <trip id="175" depart="582.75" from="E2E1" to="A2B2"/>
    <trip id="176" depart="586.08" from="B3C3" to="D2D3"/>
    <trip id="177" depart="589.41" from="D0E0" to="C4D4"/>
    <trip id="178" depart="592.74" from="D3E3" to="E2E3"/>
    <trip id="179" depart="596.07" from="D1E1" to="C3D3"/>
    <trip id="180" depart="599.40" from="D0E0" to="C2D2"/>
    <trip id="181" depart="602.73" from="C4C3" to="E4E3"/>
    <trip id="182" depart="606.06" from="E3D3" to="D0E0"/>
    <trip id="183" depart="609.39" from="E1D1" to="D2D1"/>
    <trip id="184" depart="612.72" from="D4C4" to="D3C3"/>
    <trip id="185" depart="616.05" from="A3A2" to="D1D2"/>
    <trip id="186" depart="619.38" from="E1E0" to="B3C3"/>
    <trip id="187" depart="622.71" from="C1C2" to="C2C1"/>
    <trip id="188" depart="626.04" from="C3B3" to="A1A2"/>
    <trip id="189" depart="629.37" from="A2A3" to="C2C1"/>
    <trip id="190" depart="632.70" from="B0C0" to="B2B3"/>
    <trip id="191" depart="636.03" from="D0D1" to="B2C2"/>
    <trip id="192" depart="639.36" from="C3C2" to="D4C4"/>
    <trip id="193" depart="642.69" from="D2C2" to="A0B0"/>
    <trip id="194" depart="646.02" from="E3D3" to="B1C1"/>
    <trip id="195" depart="649.35" from="B1C1" to="D4C4"/>
    <trip id="196" depart="652.68" from="E3D3" to="A2A3"/>
    <trip id="197" depart="656.01" from="A2A1" to="B1C1"/>
    <trip id="198" depart="659.34" from="B2A2" to="E1D1"/>
    <trip id="199" depart="662.67" from="C3D3" to="D1D2"/>
    <trip id="200" depart="666.00" from="E3E4" to="B2C2"/>
    <trip id="201" depart="669.33" from="A4A3" to="C3C2"/>
    <trip id="202" depart="672.66" from="B2B3" to="B1A1"/>
    <trip id="203" depart="675.99" from="C2B2" to="B0C0"/>
    <trip id="204" depart="679.32" from="E2E1" to="A4A3"/>
    <trip id="205" depart="682.65" from="C2C1" to="C1C0"/>
    <trip id="206" depart="685.98" from="D2C2" to="C1B1"/>
    <trip id="207" depart="689.31" from="A2A3" to="C1C0"/>
    <trip id="208" depart="692.64" from="E4D4" to="C3C4"/>
    <trip id="209" depart="695.97" from="D2D1" to="B3B2"/>
    <trip id="210" depart="699.30" from="D1E1" to="B1B0"/>
    <trip id="211" depart="702.63" from="A2A3" to="C2B2"/>
    <trip id="212" depart="705.96" from="E2D2" to="B2C2"/>
    <trip id="213" depart="709.29" from="D1C1" to="D0C0"/>
    <trip id="214" depart="712.62" from="C2B2" to="A3B3"/>
    <trip id="215" depart="715.95" from="D2E2" to="A0A1"/>
    <trip id="216" depart="719.28" from="A4A3" to="C4C3"/>
    <trip id="217" depart="722.61" from="B3B4" to="E3E2"/>
    <trip id="218" depart="725.94" from="B1C1" to="C3B3"/>
    <trip id="219" depart="729.27" from="A4A3" to="C0D0"/>
    <trip id="220" depart="732.60" from="D1D0" to="D2C2"/>
    <trip id="221" depart="735.93" from="E2D2" to="C4B4"/>
    <trip id="222" depart="739.26" from="B2B1" to="E0E1"/>
    <trip id="223" depart="742.59" from="A2B2" to="E3D3"/>
    <trip id="224" depart="745.92" from="B2B3" to="C2C3"/>
    <trip id="225" depart="749.25" from="B1A1" to="C1C0"/>
    <trip id="226" depart="752.58" from="A4A3" to="B3B4"/>
    <trip id="227" depart="755.91" from="B1B2" to="A2A3"/>
    <trip id="228" depart="759.24" from="C1C0" to="D1E1"/>
    <trip id="229" depart="762.57" from="B1B2" to="E0D0"/>
    <trip id="230" depart="765.90" from="A0B0" to="D3D2"/>
    <trip id="231" depart="769.23" from="A4A3" to="C0C1"/>
    <trip id="232" depart="772.56" from="E4E3" to="B3B2"/>
    <trip id="233" depart="775.89" from="A1A0" to="C4B4"/>
    <trip id="234" depart="779.22" from="B3A3" to="B4B3"/>
    <trip id="235" depart="782.55" from="E4D4" to="B3B2"/>
    <trip id="236" depart="785.88" from="A2B2" to="D3C3"/>
    <trip id="237" depart="789.21" from="B0C0" to="E2D2"/>
    <trip id="238" depart="792.54" from="B4B3" to="C2C3"/>
    <trip id="239" depart="795.87" from="B1A1" to="B0A0"/>
    <trip id="240" depart="799.20" from="C3B3" to="C3C2"/>
    <trip id="241" depart="802.53" from="A2B2" to="B1B2"/>
    <trip id="242" depart="805.86" from="D2E2" to="C1B1"/>
    <trip id="243" depart="809.19" from="C3D3" to="B2B1"/>
    <trip id="244" depart="812.52" from="E3E2" to="D0E0"/>
    <trip id="245" depart="815.85" from="C1B1" to="B2A2"/>
    <trip id="246" depart="819.18" from="B2A2" to="D2C2"/>
    <trip id="247" depart="822.51" from="D2D3" to="A2A1"/>
    <trip id="248" depart="825.84" from="C1D1" to="C0C1"/>
    <trip id="249" depart="829.17" from="D0C0" to="D0E0"/>
    <trip id="250" depart="832.50" from="E2D2" to="D2E2"/>
    <trip id="251" depart="835.83" from="C2C1" to="B1C1"/>
    <trip id="252" depart="839.16" from="E4D4" to="A2A1"/>
    <trip id="253" depart="842.49" from="E2D2" to="E1E0"/>
    <trip id="254" depart="845.82" from="B2A2" to="C1C0"/>
    <trip id="255" depart="849.15" from="A0B0" to="C1B1"/>
    <trip id="256" depart="852.48" from="A1A0" to="B3B2"/>
    <trip id="257" depart="855.81" from="C0B0" to="B1B2"/>
    <trip id="258" depart="859.14" from="D0C0" to="C3C4"/>
    <trip id="259" depart="862.47" from="E3D3" to="D2E2"/>
    <trip id="260" depart="865.80" from="D4C4" to="B3C3"/>
    <trip id="261" depart="869.13" from="B3A3" to="B0B1"/>
    <trip id="262" depart="872.46" from="D4C4" to="C4C3"/>
    <trip id="263" depart="875.79" from="B2B3" to="D1D0"/>
    <trip id="264" depart="879.12" from="D1D0" to="D1D2"/>
    <trip id="265" depart="882.45" from="B2C2" to="C0D0"/>
    <trip id="266" depart="885.78" from="E4E3" to="B4C4"/>
    <trip id="267" depart="889.11" from="A3B3" to="A2A3"/>
    <trip id="268" depart="892.44" from="A4A3" to="E2E1"/>
    <trip id="269" depart="895.77" from="D3E3" to="D4C4"/>
    <trip id="270" depart="899.10" from="A0A1" to="B3A3"/>
    <trip id="271" depart="902.43" from="C2C3" to="B0B1"/>
    <trip id="272" depart="905.76" from="A3A4" to="C3C4"/>
    <trip id="273" depart="909.09" from="E0E1" to="C0D0"/>
    <trip id="274" depart="912.42" from="B3B4" to="A2A1"/>
    <trip id="275" depart="915.75" from="B0A0" to="D4E4"/>
    <trip id="276" depart="919.08" from="E4D4" to="A3B3"/>
    <trip id="277" depart="922.41" from="C3B3" to="D2D3"/>
    <trip id="278" depart="925.74" from="B2C2" to="E2E3"/>
    <trip id="279" depart="929.07" from="C4C3" to="A2B2"/>
    <trip id="280" depart="932.40" from="B1C1" to="C1C0"/>
    <trip id="281" depart="935.73" from="E4E3" to="E2E1"/>
    <trip id="282" depart="939.06" from="C3D3" to="E3E2"/>
    <trip id="283" depart="942.39" from="D1C1" to="B4A4"/>
    <trip id="284" depart="945.72" from="D0E0" to="D4D3"/>
    <trip id="285" depart="949.05" from="C0B0" to="C2D2"/>
    <trip id="286" depart="952.38" from="D3D4" to="D2E2"/>
    <trip id="287" depart="955.71" from="B2A2" to="B4A4"/>
    <trip id="288" depart="959.04" from="D0C0" to="C2B2"/>
    <trip id="289" depart="962.37" from="D2E2" to="B4C4"/>
    <trip id="290" depart="965.70" from="B3B2" to="D1C1"/>
    <trip id="291" depart="969.03" from="D2E2" to="B3A3"/>
    <trip id="292" depart="972.36" from="B4C4" to="B2B3"/>
    <trip id="293" depart="975.69" from="B4A4" to="E4D4"/>
    <trip id="294" depart="979.02" from="B4C4" to="D0C0"/>
    <trip id="295" depart="982.35" from="B2C2" to="A3A2"/>
    <trip id="296" depart="985.68" from="C4D4" to="B4C4"/>
    <trip id="297" depart="989.01" from="B0C0" to="A3A2"/>
    <trip id="298" depart="992.34" from="A4B4" to="B4B3"/>
    <trip id="299" depart="995.67" from="C3B3" to="A0A1"/>
    <trip id="300" depart="999.00" from="C0C1" to="C3C2"/>
</routes>
