<?xml version="1.0" encoding="UTF-8"?>

<!-- generated on Tue Apr 14 10:21:20 2020 by Eclipse SUMO duarouter Version 1.2.0
<configuration xmlns:xsi="http://www.w3.org/2001/XMLSchema-instance" xsi:noNamespaceSchemaLocation="http://sumo.dlr.de/xsd/duarouterConfiguration.xsd">

    <input>
        <net-file value="test.net.xml"/>
        <route-files value="300Vehicles.trips.xml"/>
    </input>

    <output>
        <output-file value="300Vehicles.rou.xml"/>
        <alternatives-output value="300Vehicles.rou.alt.xml"/>
    </output>

    <report>
        <ignore-errors value="true"/>
    </report>

</configuration>
-->

<routes xmlns:xsi="http://www.w3.org/2001/XMLSchema-instance" xsi:noNamespaceSchemaLocation="http://sumo.dlr.de/xsd/routes_file.xsd">
    <vehicle id="0" depart="0">
        <route edges="E3E2 E2E1 E1D1 D1C1 C1B1"/>
    </vehicle>
    <vehicle id="1" depart="3.33">
        <route edges="E3E2 E2E1 E1D1 D1C1 C1B1"/>
    </vehicle>
    <vehicle id="2" depart="6.66">
        <route edges="C2C1 C1B1 B1B2 B2C2 C2D2 D2E2 E2E1 E1D1 D1D2"/>
    </vehicle>
    <vehicle id="3" depart="9.99">
        <route edges="E2D2 D2C2 C2C3 C3C4 C4D4 D4D3"/>
    </vehicle>
    <vehicle id="4" depart="13.32">
        <route edges="B1A1 A1A2 A2B2 B2B1 B1B0"/>
    </vehicle>
    <vehicle id="5" depart="16.65">
        <route edges="D4D3 D3D2 D2C2 C2C3 C3D3"/>
    </vehicle>
    <vehicle id="6" depart="19.98">
        <route edges="E2E3 E3E4 E4D4 D4C4 C4B4 B4A4 A4A3 A3A2 A2A1 A1A0"/>
    </vehicle>
    <vehicle id="7" depart="22.98">
        <route edges="E2E3 E3E4 E4D4 D4C4 C4B4 B4A4 A4A3 A3A2 A2A1 A1A0"/>
    </vehicle>
    <vehicle id="8" depart="26.98">
        <route edges="E2E3 E3E4 E4D4 D4C4 C4B4 B4A4 A4A3 A3A2 A2A1 A1A0"/>
    </vehicle>
    <vehicle id="9" depart="29.97">
        <route edges="C2C1 C1B1 B1B2 B2B3 B3C3 C3D3"/>
    </vehicle>
    <vehicle id="10" depart="33.30">
        <route edges="E2E1 E1D1 D1D2 D2D3 D3D4"/>
    </vehicle>
    <vehicle id="11" depart="36.63">
        <route edges="E1D1 D1D2 D2D3 D3D4"/>
    </vehicle>
    <vehicle id="12" depart="39.96">
        <route edges="C1D1 D1D0 D0C0 C0B0 B0A0 A0A1 A1A2 A2B2 B2B1"/>
    </vehicle>
    <vehicle id="13" depart="43.29">
        <route edges="B4C4 C4D4 D4E4 E4E3 E3E2 E2E1 E1E0"/>
    </vehicle>
    <vehicle id="14" depart="46.29">
        <route edges="B4C4 C4D4 D4E4 E4E3 E3E2 E2E1 E1E0"/>
    </vehicle>
    <vehicle id="15" depart="49.95">
        <route edges="E0D0 D0C0 C0C1 C1C2"/>
    </vehicle>
    <vehicle id="16" depart="53.28">
        <route edges="C3C4 C4D4 D4E4 E4E3 E3D3"/>
    </vehicle>
    <vehicle id="17" depart="56.61">
        <route edges="E3D3 D3D4 D4E4 E4E3 E3E2 E2E1 E1E0"/>
    </vehicle>
    <vehicle id="18" depart="59.61">
        <route edges="E3D3 D3D4 D4E4 E4E3 E3E2 E2E1 E1E0"/>
    </vehicle>
    <vehicle id="19" depart="63.27">
        <route edges="D0C0 C0C1 C1C2 C2C3 C3C4"/>
    </vehicle>
    <vehicle id="20" depart="66.27">
        <route edges="D0C0 C0C1 C1C2 C2C3 C3C4"/>
    </vehicle>
    <vehicle id="21" depart="69.93">
        <route edges="D4D3 D3D2 D2D1 D1D0 D0C0 C0C1 C1D1 D1E1"/>
    </vehicle>
    <vehicle id="22" depart="72.93">
        <route edges="D4D3 D3D2 D2D1 D1D0 D0C0 C0C1 C1D1 D1E1"/>
    </vehicle>
    <vehicle id="23" depart="76.59">
        <route edges="B0A0 A0A1 A1A2 A2A3 A3B3 B3C3 C3D3"/>
    </vehicle>
    <vehicle id="24" depart="79.59">
        <route edges="B0A0 A0A1 A1A2 A2A3 A3B3 B3C3 C3D3"/>
    </vehicle>
    <vehicle id="25" depart="82.59">
        <route edges="B0A0 A0A1 A1A2 A2A3 A3B3 B3C3 C3D3"/>
    </vehicle>
    <vehicle id="26" depart="86.58">
        <route edges="C0D0 D0E0 E0E1 E1E2 E2E3 E3E4 E4D4"/>
    </vehicle>
    <vehicle id="27" depart="89.91">
        <route edges="B3A3 A3A4 A4B4 B4B3 B3B2 B2A2 A2A3"/>
    </vehicle>
    <vehicle id="28" depart="93.24">
        <route edges="B3A3 A3A4 A4B4 B4B3 B3B2 B2A2"/>
    </vehicle>
    <vehicle id="29" depart="96.24">
        <route edges="B3A3 A3A4 A4B4 B4B3 B3B2 B2A2"/>
    </vehicle>
    <vehicle id="30" depart="99.90">
        <route edges="A2A3 A3B3 B3C3 C3C2 C2C1 C1B1 B1B2"/>
    </vehicle>
    <vehicle id="31" depart="102.90">
        <route edges="A2A3 A3B3 B3C3 C3C2 C2C1 C1B1 B1B2"/>
    </vehicle>
    <vehicle id="32" depart="106.56">
        <route edges="B3C3 C3D3 D3D2 D2C2"/>
    </vehicle>
    <vehicle id="33" depart="109.56">
        <route edges="B3C3 C3D3 D3D2 D2C2"/>
    </vehicle>
    <vehicle id="34" depart="112.56">
        <route edges="B3C3 C3D3 D3D2 D2C2"/>
    </vehicle>
    <vehicle id="35" depart="116.55">
        <route edges="B3A3 A3A4 A4B4 B4C4 C4D4 D4D3 D3D2 D2D1 D1C1 C1C2 C2D2"/>
    </vehicle>
    <vehicle id="36" depart="119.88">
        <route edges="E4D4 D4C4 C4B4 B4A4 A4A3 A3A2 A2A1 A1A0 A0B0 B0C0 C0D0 D0E0 E0E1"/>
    </vehicle>
    <vehicle id="37" depart="123.21">
        <route edges="C2B2 B2B3 B3B4 B4C4 C4C3 C3B3"/>
    </vehicle>
    <vehicle id="38" depart="126.54">
        <route edges="B1B0 B0A0 A0A1 A1B1 B1C1 C1D1 D1D0 D0C0 C0C1"/>
    </vehicle>
    <vehicle id="39" depart="129.87">
        <route edges="E2E1 E1D1 D1C1 C1B1 B1B2 B2B3 B3B4 B4C4"/>
    </vehicle>
    <vehicle id="40" depart="133.20">
        <route edges="C4C3 C3C2 C2B2 B2B3 B3C3 C3D3"/>
    </vehicle>
    <vehicle id="41" depart="136.53">
        <route edges="D2D1 D1C1 C1B1 B1B2 B2C2"/>
    </vehicle>
    <vehicle id="42" depart="139.86">
        <route edges="E1E0 E0D0 D0D1 D1D2 D2D3 D3E3"/>
    </vehicle>
    <vehicle id="43" depart="143.19">
        <route edges="D2D1 D1C1 C1C2 C2C3 C3C4 C4D4 D4E4 E4E3 E3D3 D3D4"/>
    </vehicle>
    <vehicle id="44" depart="146.52">
        <route edges="C3B3 B3A3"/>
    </vehicle>
    <vehicle id="45" depart="149.85">
        <route edges="A1B1 B1C1"/>
    </vehicle>
    <vehicle id="46" depart="153.18">
        <route edges="C2C1 C1B1 B1B2 B2B3 B3C3 C3D3 D3D2 D2C2 C2C3"/>
    </vehicle>
    <vehicle id="47" depart="156.51">
        <route edges="B3A3 A3A4 A4B4 B4C4 C4D4 D4D3 D3D2 D2D1 D1D0 D0C0 C0C1 C1D1"/>
    </vehicle>
    <vehicle id="48" depart="159.84">
        <route edges="C4D4 D4E4 E4E3 E3D3 D3D4"/>
    </vehicle>
    <vehicle id="49" depart="163.17">
        <route edges="E3E2 E2E1 E1D1 D1C1 C1B1 B1A1 A1A2"/>
    </vehicle>
    <vehicle id="50" depart="166.50">
        <route edges="B4C4 C4D4 D4E4 E4E3 E3E2 E2E1 E1D1 D1D2 D2E2"/>
    </vehicle>
    <vehicle id="51" depart="169.83">
        <route edges="A3A4 A4B4 B4C4 C4C3 C3C2 C2C1 C1C0 C0B0 B0B1 B1C1"/>
    </vehicle>
    <vehicle id="52" depart="172.83">
        <route edges="A3A4 A4B4 B4C4 C4C3 C3C2 C2C1 C1C0 C0B0 B0B1 B1C1"/>
    </vehicle>
    <vehicle id="53" depart="176.49">
        <route edges="D4D3 D3C3 C3B3 B3A3 A3A4 A4B4 B4B3 B3B2 B2B1"/>
    </vehicle>
    <vehicle id="54" depart="179.82">
        <route edges="C3C4 C4D4 D4D3 D3D2 D2D1 D1D0 D0C0 C0B0 B0A0"/>
    </vehicle>
    <vehicle id="55" depart="182.82">
        <route edges="C3C4 C4D4 D4D3 D3D2 D2D1 D1D0 D0C0 C0B0 B0A0"/>
    </vehicle>
    <vehicle id="56" depart="186.48">
        <route edges="A3A4 A4B4 B4C4 C4C3 C3C2 C2B2 B2B3"/>
    </vehicle>
    <vehicle id="57" depart="189.48">
        <route edges="A3A4 A4B4 B4C4 C4C3 C3C2 C2B2 B2B3"/>
    </vehicle>
    <vehicle id="58" depart="193.14">
        <route edges="B2C2 C2C1 C1C0 C0B0 B0B1"/>
    </vehicle>
    <vehicle id="59" depart="196.47">
        <route edges="C3C4 C4D4 D4D3 D3D2 D2C2 C2B2 B2B3 B3C3"/>
    </vehicle>
    <vehicle id="60" depart="199.80">
        <route edges="C2C3 C3C4 C4D4 D4D3 D3C3 C3B3"/>
    </vehicle>
    <vehicle id="61" depart="202.80">
        <route edges="C2C3 C3C4 C4D4 D4D3 D3C3 C3B3"/>
    </vehicle>
    <vehicle id="62" depart="206.46">
        <route edges="C3C2 C2B2 B2B3 B3B4 B4C4 C4D4"/>
    </vehicle>
    <vehicle id="63" depart="209.46">
        <route edges="C3C2 C2B2 B2B3 B3B4 B4C4 C4D4"/>
    </vehicle>
    <vehicle id="64" depart="212.46">
        <route edges="C3C2 C2B2 B2B3 B3B4 B4C4 C4D4"/>
    </vehicle>
    <vehicle id="65" depart="216.45">
        <route edges="D2D3 D3D4 D4E4 E4E3 E3D3 D3C3 C3B3 B3A3 A3A4"/>
    </vehicle>
    <vehicle id="66" depart="219.78">
        <route edges="B1B0 B0A0 A0A1 A1A2 A2A3 A3B3 B3C3 C3C2 C2B2"/>
    </vehicle>
    <vehicle id="67" depart="222.78">
        <route edges="B1B0 B0A0 A0A1 A1A2 A2A3 A3B3 B3C3 C3C2 C2B2"/>
    </vehicle>
    <vehicle id="68" depart="226.44">
        <route edges="C3B3 B3B4 B4C4 C4C3 C3C2 C2C1 C1C0 C0B0 B0B1 B1C1"/>
    </vehicle>
    <vehicle id="69" depart="229.77">
        <route edges="C2C1 C1B1 B1B2 B2B3 B3B4 B4C4 C4C3"/>
    </vehicle>
    <vehicle id="70" depart="233.10">
        <route edges="C3D3 D3D2 D2C2 C2B2 B2B3 B3B4"/>
    </vehicle>
    <vehicle id="71" depart="236.43">
        <route edges="D2D1 D1C1 C1B1 B1A1 A1A2 A2A3 A3A4 A4B4 B4B3"/>
    </vehicle>
    <vehicle id="72" depart="239.76">
        <route edges="D0D1 D1E1 E1E0 E0D0 D0C0 C0C1 C1D1"/>
    </vehicle>
    <vehicle id="73" depart="243.09">
        <route edges="C0B0 B0B1 B1B2 B2B3 B3B4 B4C4 C4D4"/>
    </vehicle>
    <vehicle id="74" depart="246.42">
        <route edges="A0A1 A1A2 A2B2 B2C2 C2C1 C1B1"/>
    </vehicle>
    <vehicle id="75" depart="249.75">
        <route edges="E4D4 D4C4 C4B4 B4A4"/>
    </vehicle>
    <vehicle id="76" depart="252.75">
        <route edges="E4D4 D4C4 C4B4 B4A4"/>
    </vehicle>
    <vehicle id="77" depart="256.41">
        <route edges="A0A1 A1A2 A2B2 B2C2 C2C1 C1B1 B1B2"/>
    </vehicle>
    <vehicle id="78" depart="259.74">
        <route edges="C2B2 B2B3 B3C3 C3C2 C2C1"/>
    </vehicle>
    <vehicle id="79" depart="263.07">
        <route edges="D1D2 D2E2 E2E1 E1D1 D1C1 C1C2 C2C3 C3D3 D3D2"/>
    </vehicle>
    <vehicle id="80" depart="266.40">
        <route edges="C2D2 D2D1 D1C1 C1C2 C2C3 C3D3 D3E3 E3E2"/>
    </vehicle>
    <vehicle id="81" depart="269.73">
        <route edges="B3C3 C3D3 D3E3 E3E2 E2D2 D2D3 D3D4"/>
    </vehicle>
    <vehicle id="82" depart="272.73">
        <route edges="B3C3 C3D3 D3E3 E3E2 E2D2 D2D3 D3D4"/>
    </vehicle>
    <vehicle id="83" depart="276.39">
        <route edges="B1C1"/>
    </vehicle>
    <vehicle id="84" depart="279.72">
        <route edges="B3C3 C3D3 D3E3"/>
    </vehicle>
    <vehicle id="85" depart="283.05">
        <route edges="C2C3 C3D3 D3D2 D2D1 D1C1 C1C2"/>
    </vehicle>
    <vehicle id="86" depart="286.05">
        <route edges="C2C3 C3D3 D3D2 D2D1 D1C1 C1C2"/>
    </vehicle>
    <vehicle id="87" depart="289.05">
        <route edges="C2C3 C3D3 D3D2 D2D1 D1C1 C1C2"/>
    </vehicle>
    <vehicle id="88" depart="292.05">
        <route edges="C2C3 C3D3 D3D2 D2D1 D1C1 C1C2"/>
    </vehicle>
    <vehicle id="89" depart="296.37">
        <route edges="B0B1 B1C1 C1C0 C0B0 B0A0 A0A1 A1A2 A2A3 A3A4 A4B4 B4B3"/>
    </vehicle>
    <vehicle id="90" depart="299.70">
        <route edges="D4E4 E4E3 E3E2 E2E1 E1D1 D1C1 C1B1 B1B2"/>
    </vehicle>
    <vehicle id="91" depart="303.03">
        <route edges="C3C4 C4D4 D4D3 D3C3 C3B3 B3B4"/>
    </vehicle>
    <vehicle id="92" depart="306.36">
        <route edges="C1D1 D1D0 D0C0 C0B0 B0A0 A0A1 A1A2 A2A3 A3A4"/>
    </vehicle>
    <vehicle id="93" depart="309.69">
        <route edges="C3D3 D3D2 D2D1 D1C1 C1C2 C2D2"/>
    </vehicle>
    <vehicle id="94" depart="312.69">
        <route edges="C3D3 D3D2 D2D1 D1C1 C1C2 C2D2"/>
    </vehicle>
    <vehicle id="95" depart="316.35">
        <route edges="E2D2 D2C2 C2B2 B2A2 A2A3 A3A4"/>
    </vehicle>
    <vehicle id="96" depart="319.68">
        <route edges="E1E0 E0D0 D0C0 C0C1 C1C2 C2D2"/>
    </vehicle>
    <vehicle id="97" depart="323.01">
        <route edges="C3B3 B3A3 A3A4"/>
    </vehicle>
    <vehicle id="98" depart="326.34">
        <route edges="D4E4 E4E3 E3E2 E2D2 D2C2 C2B2 B2B3 B3C3 C3C2"/>
    </vehicle>
    <vehicle id="99" depart="329.67">
        <route edges="D1D0 D0C0 C0B0 B0A0 A0A1 A1A2 A2A3 A3B3 B3B2"/>
    </vehicle>
    <vehicle id="100" depart="333.00">
        <route edges="C2C1 C1B1 B1B2 B2C2 C2D2 D2E2 E2E1 E1E0 E0D0"/>
    </vehicle>
    <vehicle id="101" depart="336.33">
        <route edges="E1D1 D1C1 C1C2 C2D2"/>
    </vehicle>
    <vehicle id="102" depart="339.66">
        <route edges="C3C4 C4D4 D4D3 D3D2 D2C2 C2B2 B2A2 A2A3 A3B3"/>
    </vehicle>
    <vehicle id="103" depart="342.99">
        <route edges="B3B4 B4C4 C4D4 D4D3 D3D2 D2C2"/>
    </vehicle>
    <vehicle id="104" depart="346.32">
        <route edges="B0B1 B1B2 B2C2 C2D2 D2E2"/>
    </vehicle>
    <vehicle id="105" depart="349.32">
        <route edges="B0B1 B1B2 B2C2 C2D2 D2E2"/>
    </vehicle>
    <vehicle id="106" depart="352.98">
        <route edges="E4E3 E3E2 E2E1 E1E0"/>
    </vehicle>
    <vehicle id="107" depart="356.31">
        <route edges="D2D1 D1C1 C1B1 B1A1 A1A2 A2A3"/>
    </vehicle>
    <vehicle id="108" depart="359.64">
        <route edges="C1C2 C2D2 D2D1 D1C1 C1B1 B1A1 A1A2 A2B2"/>
    </vehicle>
    <vehicle id="109" depart="362.97">
        <route edges="D2C2 C2C3 C3D3 D3E3 E3E2 E2E1 E1E0 E0D0 D0D1 D1E1"/>
    </vehicle>
    <vehicle id="110" depart="366.30">
        <route edges="D0C0 C0C1 C1D1 D1E1 E1E0 E0D0 D0D1"/>
    </vehicle>
    <vehicle id="111" depart="369.63">
        <route edges="C1C0 C0B0 B0B1 B1C1 C1D1 D1E1 E1E0"/>
    </vehicle>
    <vehicle id="112" depart="372.96">
        <route edges="C1B1 B1B2 B2C2 C2D2 D2E2 E2E1 E1E0 E0D0 D0D1"/>
    </vehicle>
    <vehicle id="113" depart="376.29">
        <route edges="A0B0 B0C0 C0D0 D0E0 E0E1 E1E2 E2E3"/>
    </vehicle>
    <vehicle id="114" depart="379.62">
        <route edges="E1D1 D1D2 D2D3 D3E3 E3E2"/>
    </vehicle>
    <vehicle id="115" depart="382.62">
        <route edges="E1D1 D1D2 D2D3 D3E3 E3E2"/>
    </vehicle>
    <vehicle id="116" depart="386.28">
        <route edges="B0A0 A0A1 A1B1 B1C1 C1C0"/>
    </vehicle>
    <vehicle id="117" depart="389.28">
        <route edges="B0A0 A0A1 A1B1 B1C1 C1C0"/>
    </vehicle>
    <vehicle id="118" depart="392.94">
        <route edges="D2E2 E2E1 E1D1 D1C1 C1B1 B1A1 A1A2 A2A3"/>
    </vehicle>
    <vehicle id="119" depart="396.94">
        <route edges="D2E2 E2E1 E1D1 D1C1 C1B1 B1A1 A1A2 A2A3"/>
    </vehicle>
    <vehicle id="120" depart="399.60">
        <route edges="A2B2 B2B1 B1A1 A1A2"/>
    </vehicle>
    <vehicle id="121" depart="402.93">
        <route edges="B0B1 B1B2 B2B3 B3C3 C3D3"/>
    </vehicle>
    <vehicle id="122" depart="406.26">
        <route edges="C2D2 D2D1 D1C1 C1B1"/>
    </vehicle>
    <vehicle id="123" depart="409.59">
        <route edges="C3C2 C2B2 B2B3 B3B4 B4C4 C4D4"/>
    </vehicle>
    <vehicle id="124" depart="412.92">
        <route edges="B3C3 C3C2 C2B2 B2B3 B3B4 B4C4 C4C3 C3B3"/>
    </vehicle>
    <vehicle id="125" depart="416.25">
        <route edges="A0A1 A1A2 A2A3"/>
    </vehicle>
    <vehicle id="126" depart="419.58">
        <route edges="B3A3 A3A4 A4B4 B4C4 C4D4 D4E4 E4E3 E3E2 E2E1 E1E0 E0D0 D0D1 D1E1"/>
    </vehicle>
    <vehicle id="127" depart="422.58">
        <route edges="B3A3 A3A4 A4B4 B4C4 C4D4 D4E4 E4E3 E3E2 E2E1 E1E0 E0D0 D0D1 D1E1"/>
    </vehicle>
    <vehicle id="128" depart="425.58">
        <route edges="B3A3 A3A4 A4B4 B4C4 C4D4 D4E4 E4E3 E3E2 E2E1 E1E0 E0D0 D0D1 D1E1"/>
    </vehicle>
    <vehicle id="129" depart="429.58">
        <route edges="B3A3 A3A4 A4B4 B4C4 C4D4 D4E4 E4E3 E3E2 E2E1 E1E0 E0D0 D0D1 D1E1"/>
    </vehicle>
    <vehicle id="130" depart="432.90">
        <route edges="C0D0 D0E0 E0E1 E1E2 E2E3 E3E4 E4D4 D4C4 C4B4 B4A4"/>
    </vehicle>
    <vehicle id="131" depart="435.90">
        <route edges="C0D0 D0E0 E0E1 E1E2 E2E3 E3E4 E4D4 D4C4 C4B4 B4A4"/>
    </vehicle>
    <vehicle id="132" depart="438.90">
        <route edges="C0D0 D0E0 E0E1 E1E2 E2E3 E3E4 E4D4 D4C4 C4B4 B4A4"/>
    </vehicle>
    <vehicle id="133" depart="442.89">
        <route edges="C3B3 B3B4 B4C4 C4C3 C3C2"/>
    </vehicle>
    <vehicle id="134" depart="446.22">
        <route edges="D3D4 D4E4 E4E3 E3E2 E2E1 E1E0"/>
    </vehicle>
    <vehicle id="135" depart="449.22">
        <route edges="D3D4 D4E4 E4E3 E3E2 E2E1 E1E0"/>
    </vehicle>
    <vehicle id="136" depart="452.22">
        <route edges="D3D4 D4E4 E4E3 E3E2 E2E1 E1E0"/>
    </vehicle>
    <vehicle id="137" depart="456.21">
        <route edges="A3A4 A4B4 B4C4 C4D4 D4D3 D3C3 C3C4"/>
    </vehicle>
    <vehicle id="138" depart="459.54">
        <route edges="A0A1 A1A2 A2B2 B2C2 C2D2"/>
    </vehicle>
    <vehicle id="139" depart="462.87">
        <route edges="B1A1 A1A2 A2A3 A3B3 B3B2"/>
    </vehicle>
    <vehicle id="140" depart="466.20">
        <route edges="B3C3 C3C2 C2B2 B2A2 A2A3 A3B3 B3B2"/>
    </vehicle>
    <vehicle id="141" depart="469.53">
        <route edges="C3C2 C2C1 C1B1 B1A1 A1A2"/>
    </vehicle>
    <vehicle id="142" depart="472.86">
        <route edges="B1A1 A1A2 A2A3 A3A4 A4B4 B4C4 C4D4 D4E4 E4E3 E3D3 D3D4"/>
    </vehicle>
    <vehicle id="143" depart="476.19">
        <route edges="D1C1 C1B1 B1B2"/>
    </vehicle>
    <vehicle id="144" depart="479.19">
        <route edges="D1C1 C1B1 B1B2"/>
    </vehicle>
    <vehicle id="145" depart="482.85">
        <route edges="B2C2 C2C1 C1B1 B1B2"/>
    </vehicle>
    <vehicle id="146" depart="486.19">
        <route edges="D1C1 C1B1 B1B2"/>
    </vehicle>
    <vehicle id="147" depart="489.51">
        <route edges="A4B4 B4C4 C4C3 C3C2 C2C1 C1B1 B1B2 B2C2"/>
    </vehicle>
    <vehicle id="148" depart="493.51">
        <route edges="A4B4 B4C4 C4C3 C3C2 C2C1 C1B1 B1B2 B2C2"/>
    </vehicle>
    <vehicle id="149" depart="496.17">
        <route edges="A0B0 B0C0 C0D0 D0E0 E0E1 E1E2 E2E3 E3E4 E4D4 D4C4 C4B4 B4A4"/>
    </vehicle>
    <vehicle id="150" depart="499.17">
        <route edges="A0B0 B0C0 C0D0 D0E0 E0E1 E1E2 E2E3 E3E4 E4D4 D4C4 C4B4 B4A4"/>
    </vehicle>
    <vehicle id="151" depart="502.17">
        <route edges="A0B0 B0C0 C0D0 D0E0 E0E1 E1E2 E2E3 E3E4 E4D4 D4C4 C4B4 B4A4"/>
    </vehicle>
    <vehicle id="152" depart="506.17">
        <route edges="A0B0 B0C0 C0D0 D0E0 E0E1 E1E2 E2E3 E3E4 E4D4 D4C4 C4B4 B4A4"/>
    </vehicle>
    <vehicle id="153" depart="509.17">
        <route edges="A0B0 B0C0 C0D0 D0E0 E0E1 E1E2 E2E3 E3E4 E4D4 D4C4 C4B4 B4A4"/>
    </vehicle>
    <vehicle id="154" depart="512.82">
        <route edges="B1A1 A1A2 A2B2 B2C2 C2D2 D2D1 D1D0 D0C0"/>
    </vehicle>
    <vehicle id="155" depart="516.82">
        <route edges="B1A1 A1A2 A2B2 B2C2 C2D2 D2D1 D1D0 D0C0"/>
    </vehicle>
    <vehicle id="156" depart="519.48">
        <route edges="C2D2 D2D1 D1C1 C1B1 B1B2 B2B3"/>
    </vehicle>
    <vehicle id="157" depart="522.81">
        <route edges="C0C1 C1D1 D1D0 D0C0 C0B0 B0B1 B1B2 B2B3 B3C3"/>
    </vehicle>
    <vehicle id="158" depart="526.14">
        <route edges="A4B4 B4C4 C4D4 D4E4 E4E3 E3E2 E2E1 E1E0 E0D0"/>
    </vehicle>
    <vehicle id="159" depart="529.47">
        <route edges="D1D0 D0C0 C0B0 B0B1 B1B2 B2B3 B3C3"/>
    </vehicle>
    <vehicle id="160" depart="532.80">
        <route edges="B2C2 C2D2 D2D1 D1D0"/>
    </vehicle>
    <vehicle id="161" depart="536.80">
        <route edges="B2C2 C2D2 D2D1 D1D0"/>
    </vehicle>
    <vehicle id="162" depart="539.46">
        <route edges="C1C0 C0B0 B0A0 A0A1 A1A2 A2A3 A3A4 A4B4 B4B3 B3A3"/>
    </vehicle>
    <vehicle id="163" depart="542.46">
        <route edges="C1C0 C0B0 B0A0 A0A1 A1A2 A2A3 A3A4 A4B4 B4B3 B3A3"/>
    </vehicle>
    <vehicle id="164" depart="545.46">
        <route edges="C1C0 C0B0 B0A0 A0A1 A1A2 A2A3 A3A4 A4B4 B4B3 B3A3"/>
    </vehicle>
    <vehicle id="165" depart="549.45">
        <route edges="C3C4 C4D4 D4D3 D3C3 C3B3 B3B4 B4C4 C4C3"/>
    </vehicle>
    <vehicle id="166" depart="552.45">
        <route edges="C3C4 C4D4 D4D3 D3C3 C3B3 B3B4 B4C4 C4C3"/>
    </vehicle>
    <vehicle id="167" depart="556.11">
        <route edges="A4B4 B4C4 C4C3 C3B3"/>
    </vehicle>
    <vehicle id="168" depart="559.44">
        <route edges="E4E3 E3E2 E2D2 D2C2 C2C3 C3D3"/>
    </vehicle>
    <vehicle id="169" depart="562.44">
        <route edges="E4E3 E3E2 E2D2 D2C2 C2C3 C3D3"/>
    </vehicle>
    <vehicle id="170" depart="566.10">
        <route edges="C3C4 C4D4 D4D3 D3D2 D2D1 D1D0 D0C0 C0B0 B0A0 A0A1 A1B1 B1B0"/>
    </vehicle>
    <vehicle id="171" depart="569.43">
        <route edges="C0C1 C1C2 C2C3 C3D3 D3E3"/>
    </vehicle>
    <vehicle id="172" depart="572.76">
        <route edges="C1C0 C0B0 B0B1 B1B2 B2B3 B3C3 C3D3 D3D2 D2C2"/>
    </vehicle>
    <vehicle id="173" depart="576.76">
        <route edges="C1C0 C0B0 B0B1 B1B2 B2B3 B3C3 C3D3 D3D2 D2C2"/>
    </vehicle>
    <vehicle id="174" depart="579.76">
        <route edges="C1C0 C0B0 B0B1 B1B2 B2B3 B3C3 C3D3 D3D2 D2C2"/>
    </vehicle>
    <vehicle id="175" depart="582.75">
        <route edges="E2E1 E1D1 D1C1 C1B1 B1A1 A1A2 A2B2"/>
    </vehicle>
    <vehicle id="176" depart="586.08">
        <route edges="B3C3 C3D3 D3E3 E3E2 E2D2 D2D3"/>
    </vehicle>
    <vehicle id="177" depart="589.08">
        <route edges="B3C3 C3D3 D3E3 E3E2 E2D2 D2D3"/>
    </vehicle>
    <vehicle id="178" depart="592.08">
        <route edges="B3C3 C3D3 D3E3 E3E2 E2D2 D2D3"/>
    </vehicle>
    <vehicle id="179" depart="596.07">
        <route edges="D1E1 E1E0 E0D0 D0C0 C0C1 C1C2 C2C3 C3D3"/>
    </vehicle>
    <vehicle id="180" depart="599.07">
        <route edges="D1E1 E1E0 E0D0 D0C0 C0C1 C1C2 C2C3 C3D3"/>
    </vehicle>
    <vehicle id="181" depart="602.73">
        <route edges="C4C3 C3B3 B3B4 B4C4 C4D4 D4E4 E4E3"/>
    </vehicle>
    <vehicle id="182" depart="606.00">
        <route edges="C4C3 C3B3 B3B4 B4C4 C4D4 D4E4 E4E3"/>
    </vehicle>
    <vehicle id="183" depart="609.39">
        <route edges="E1D1 D1C1 C1C2 C2D2 D2D1"/>
    </vehicle>
    <vehicle id="184" depart="612.39">
        <route edges="E1D1 D1C1 C1C2 C2D2 D2D1"/>
    </vehicle>
    <vehicle id="185" depart="616.39">
        <route edges="E1D1 D1C1 C1C2 C2D2 D2D1"/>
    </vehicle>
    <vehicle id="186" depart="619.38">
        <route edges="E1E0 E0D0 D0C0 C0B0 B0B1 B1B2 B2B3 B3C3"/>
    </vehicle>
    <vehicle id="187" depart="622.71">
        <route edges="C1C2 C2D2 D2D1 D1C1 C1B1 B1B2 B2C2 C2C1"/>
    </vehicle>
    <vehicle id="188" depart="626.04">
        <route edges="C3B3 B3A3 A3A4 A4B4 B4B3 B3B2 B2B1 B1A1 A1A2"/>
    </vehicle>
    <vehicle id="189" depart="629.37">
        <route edges="A2A3 A3B3 B3C3 C3C2 C2C1"/>
    </vehicle>
    <vehicle id="190" depart="632.37">
        <route edges="A2A3 A3B3 B3C3 C3C2 C2C1"/>
    </vehicle>
    <vehicle id="191" depart="636.03">
        <route edges="D0D1 D1E1 E1E0 E0D0 D0C0 C0B0 B0B1 B1B2 B2C2"/>
    </vehicle>
    <vehicle id="192" depart="639.33">
        <route edges="D0D1 D1E1 E1E0 E0D0 D0C0 C0B0 B0B1 B1B2 B2C2"/>
    </vehicle>
    <vehicle id="193" depart="642.63">
        <route edges="D0D1 D1E1 E1E0 E0D0 D0C0 C0B0 B0B1 B1B2 B2C2"/>
    </vehicle>
    <vehicle id="194" depart="646.02">
        <route edges="E3D3 D3D4 D4E4 E4E3 E3E2 E2E1 E1E0 E0D0 D0C0 C0B0 B0B1 B1C1"/>
    </vehicle>
    <vehicle id="195" depart="649.02">
        <route edges="E3D3 D3D4 D4E4 E4E3 E3E2 E2E1 E1E0 E0D0 D0C0 C0B0 B0B1 B1C1"/>
    </vehicle>
    <vehicle id="196" depart="652.68">
        <route edges="E3D3 D3C3 C3B3 B3A3 A3A4 A4B4 B4B3 B3B2 B2A2 A2A3"/>
    </vehicle>
    <vehicle id="197" depart="655.68">
        <route edges="E3D3 D3C3 C3B3 B3A3 A3A4 A4B4 B4B3 B3B2 B2A2 A2A3"/>
    </vehicle>
    <vehicle id="198" depart="659.34">
        <route edges="B2A2 A2A3 A3B3 B3C3 C3D3 D3E3 E3E2 E2E1 E1D1"/>
    </vehicle>
    <vehicle id="199" depart="662.67">
        <route edges="C3D3 D3E3 E3E2 E2E1 E1D1 D1D2"/>
    </vehicle>
    <vehicle id="200" depart="665.67">
        <route edges="C3D3 D3E3 E3E2 E2E1 E1D1 D1D2"/>
    </vehicle>
    <vehicle id="201" depart="669.67">
        <route edges="C3D3 D3E3 E3E2 E2E1 E1D1 D1D2"/>
    </vehicle>
    <vehicle id="202" depart="672.66">
        <route edges="B2B3 B3C3 C3C2 C2C1 C1B1 B1A1"/>
    </vehicle>
    <vehicle id="203" depart="675.66">
        <route edges="B2B3 B3C3 C3C2 C2C1 C1B1 B1A1"/>
    </vehicle>
    <vehicle id="204" depart="679.66">
        <route edges="B2B3 B3C3 C3C2 C2C1 C1B1 B1A1"/>
    </vehicle>
    <vehicle id="205" depart="682.65">
        <route edges="C2C1 C1C0"/>
    </vehicle>
    <vehicle id="206" depart="685.98">
        <route edges="D2C2 C2C3 C3D3 D3D2 D2D1 D1C1 C1B1"/>
    </vehicle>
    <vehicle id="207" depart="689.31">
        <route edges="A2A3 A3B3 B3C3 C3C2 C2C1 C1C0"/>
    </vehicle>
    <vehicle id="208" depart="692.31">
        <route edges="A2A3 A3B3 B3C3 C3C2 C2C1 C1C0"/>
    </vehicle>
    <vehicle id="209" depart="695.97">
        <route edges="D2D1 D1C1 C1B1 B1A1 A1A2 A2A3 A3B3 B3B2"/>
    </vehicle>
    <vehicle id="210" depart="699.30">
        <route edges="D1E1 E1E0 E0D0 D0C0 C0B0 B0A0 A0A1 A1B1 B1B0"/>
    </vehicle>
    <vehicle id="211" depart="702.63">
        <route edges="A2A3 A3B3 B3C3 C3C2 C2B2"/>
    </vehicle>
    <vehicle id="212" depart="705.96">
        <route edges="E2D2 D2D3 D3E3 E3E2 E2E1 E1D1 D1C1 C1B1 B1B2 B2C2"/>
    </vehicle>
    <vehicle id="213" depart="709.29">
        <route edges="D1C1 C1C2 C2D2 D2D1 D1D0 D0C0"/>
    </vehicle>
    <vehicle id="214" depart="712.62">
        <route edges="C2B2 B2A2 A2A3 A3B3"/>
    </vehicle>
    <vehicle id="215" depart="715.95">
        <route edges="D2E2 E2E1 E1E0 E0D0 D0C0 C0B0 B0A0 A0A1"/>
    </vehicle>
    <vehicle id="216" depart="719.95">
        <route edges="D2E2 E2E1 E1E0 E0D0 D0C0 C0B0 B0A0 A0A1"/>
    </vehicle>
    <vehicle id="217" depart="722.61">
        <route edges="B3B4 B4C4 C4D4 D4E4 E4E3 E3E2"/>
    </vehicle>
    <vehicle id="218" depart="725.94">
        <route edges="B1C1 C1C0 C0B0 B0B1 B1B2 B2B3 B3B4 B4C4 C4C3 C3B3"/>
    </vehicle>
    <vehicle id="219" depart="729.27">
        <route edges="A4A3 A3A2 A2A1 A1A0 A0B0 B0C0 C0D0"/>
    </vehicle>
    <vehicle id="220" depart="732.60">
        <route edges="D1D0 D0C0 C0C1 C1C2 C2C3 C3D3 D3D2 D2C2"/>
    </vehicle>
    <vehicle id="221" depart="735.60">
        <route edges="D1D0 D0C0 C0C1 C1C2 C2C3 C3D3 D3D2 D2C2"/>
    </vehicle>
    <vehicle id="222" depart="739.60">
        <route edges="D1D0 D0C0 C0C1 C1C2 C2C3 C3D3 D3D2 D2C2"/>
    </vehicle>
    <vehicle id="223" depart="742.59">
        <route edges="A2B2 B2B1 B1A1 A1A2 A2A3 A3A4 A4B4 B4C4 C4D4 D4E4 E4E3 E3D3"/>
    </vehicle>
    <vehicle id="224" depart="745.92">
        <route edges="B2B3 B3C3 C3D3 D3D2 D2C2 C2C3"/>
    </vehicle>
    <vehicle id="225" depart="749.25">
        <route edges="B1A1 A1A2 A2B2 B2C2 C2C1 C1C0"/>
    </vehicle>
    <vehicle id="226" depart="752.25">
        <route edges="B1A1 A1A2 A2B2 B2C2 C2C1 C1C0"/>
    </vehicle>
    <vehicle id="227" depart="755.91">
        <route edges="B1B2 B2C2 C2C1 C1B1 B1A1 A1A2 A2A3"/>
    </vehicle>
    <vehicle id="228" depart="759.24">
        <route edges="C1C0 C0B0 B0B1 B1C1 C1D1 D1E1"/>
    </vehicle>
    <vehicle id="229" depart="762.57">
        <route edges="B1B2 B2C2 C2D2 D2E2 E2E1 E1E0 E0D0"/>
    </vehicle>
    <vehicle id="230" depart="765.57">
        <route edges="B1B2 B2C2 C2D2 D2E2 E2E1 E1E0 E0D0"/>
    </vehicle>
    <vehicle id="231" depart="769.57">
        <route edges="B1B2 B2C2 C2D2 D2E2 E2E1 E1E0 E0D0"/>
    </vehicle>
    <vehicle id="232" depart="772.56">
        <route edges="E4E3 E3D3 D3C3 C3B3 B3A3 A3A4 A4B4 B4B3 B3B2"/>
    </vehicle>
    <vehicle id="233" depart="775.89">
        <route edges="A1A0 A0B0 B0C0 C0D0 D0E0 E0E1 E1E2 E2E3 E3E4 E4D4 D4C4 C4B4"/>
    </vehicle>
    <vehicle id="234" depart="779.22">
        <route edges="B3A3 A3A4 A4B4 B4B3"/>
    </vehicle>
    <vehicle id="235" depart="781.22">
        <route edges="B3A3 A3A4 A4B4 B4B3"/>
    </vehicle>
    <vehicle id="236" depart="785.88">
        <route edges="A2B2 B2B1 B1A1 A1A2 A2A3 A3A4 A4B4 B4C4 C4D4 D4D3 D3C3"/>
    </vehicle>
    <vehicle id="237" depart="789.88">
        <route edges="A2B2 B2B1 B1A1 A1A2 A2A3 A3A4 A4B4 B4C4 C4D4 D4D3 D3C3"/>
    </vehicle>
    <vehicle id="238" depart="792.54">
        <route edges="B4B3 B3A3 A3A4 A4B4 B4C4 C4D4 D4D3 D3D2 D2C2 C2C3"/>
    </vehicle>
    <vehicle id="239" depart="795.87">
        <route edges="B1A1 A1A2 A2B2 B2B1 B1B0 B0A0"/>
    </vehicle>
    <vehicle id="240" depart="799.20">
        <route edges="C3B3 B3B4 B4C4 C4C3 C3C2"/>
    </vehicle>
    <vehicle id="241" depart="802.53">
        <route edges="A2B2 B2C2 C2C1 C1B1 B1B2"/>
    </vehicle>
    <vehicle id="242" depart="805.86">
        <route edges="D2E2 E2E1 E1D1 D1C1 C1B1"/>
    </vehicle>
    <vehicle id="243" depart="809.19">
        <route edges="C3D3 D3D2 D2D1 D1C1 C1B1 B1A1 A1A2 A2B2 B2B1"/>
    </vehicle>
    <vehicle id="244" depart="812.19">
        <route edges="C3D3 D3D2 D2D1 D1C1 C1B1 B1A1 A1A2 A2B2 B2B1"/>
    </vehicle>
    <vehicle id="245" depart="815.85">
        <route edges="C1B1 B1B2 B2B3 B3C3 C3C2 C2B2 B2A2"/>
    </vehicle>
    <vehicle id="246" depart="819.18">
        <route edges="B2A2 A2A3 A3B3 B3C3 C3D3 D3D2 D2C2"/>
    </vehicle>
    <vehicle id="247" depart="819.18">
        <route edges="B2A2 A2A3 A3B3 B3C3 C3D3 D3D2 D2C2"/>
    </vehicle>
    <vehicle id="248" depart="825.84">
        <route edges="C1D1 D1D0 D0C0 C0C1"/>
    </vehicle>
    <vehicle id="249" depart="829.84">
        <route edges="C1D1 D1D0 D0C0 C0C1"/>
    </vehicle>
    <vehicle id="250" depart="832.50">
        <route edges="E2D2 D2D3 D3E3 E3E2 E2E1 E1D1 D1D2 D2E2"/>
    </vehicle>
    <vehicle id="251" depart="835.83">
        <route edges="C2C1 C1C0 C0B0 B0B1 B1C1"/>
    </vehicle>
    <vehicle id="252" depart="839.16">
        <route edges="E4D4 D4C4 C4B4 B4A4 A4A3 A3A2 A2A1"/>
    </vehicle>
    <vehicle id="253" depart="842.49">
        <route edges="E2D2 D2D3 D3E3 E3E2 E2E1 E1E0"/>
    </vehicle>
    <vehicle id="254" depart="845.82">
        <route edges="B2A2 A2A3 A3B3 B3C3 C3C2 C2C1 C1C0"/>
    </vehicle>
    <vehicle id="255" depart="848.82">
        <route edges="B2A2 A2A3 A3B3 B3C3 C3C2 C2C1 C1C0"/>
    </vehicle>
    <vehicle id="256" depart="852.82">