<?xml version="1.0" encoding="UTF-8"?>

<!-- generated on Tue Feb 18 14:49:41 2020 by Eclipse SUMO duarouter Version 1.2.0
<configuration xmlns:xsi="http://www.w3.org/2001/XMLSchema-instance" xsi:noNamespaceSchemaLocation="http://sumo.dlr.de/xsd/duarouterConfiguration.xsd">

    <input>
        <net-file value="singleRoad.net.xml"/>
        <route-files value="singleRoad.trip.xml"/>
    </input>

    <output>
        <output-file value="singleRoad.rou.xml"/>
        <alternatives-output value="singleRoad.rou.alt.xml"/>
    </output>

</configuration>
-->

<routes xmlns:xsi="http://www.w3.org/2001/XMLSchema-instance" xsi:noNamespaceSchemaLocation="http://sumo.dlr.de/xsd/routes_file.xsd">

    <!-- Default Vehicles -->
    <vType id="passenger" tau="0.1" minGap = "0.5" maxSpeed = "5" vClass="passenger" probability="0.4"/>
    <!-- <vType id="" vClass="" probability=""/> -->
    <!-- <vType id="" vClass="" probability=""/> -->
    <!-- <vType id="" vClass="" probability=""/> -->
    <!-- <vType id="" vClass="" probability=""/> -->

    <!-- S.P.C -->
    <vType 
        id="SPC"
        length="2.1" 
        width="0.8"
        minGap="0.5"
        accel="600"
        decel="7"
        emergencyDecel="10"
        maxSpeed="200"
        tau="0.1"

        sigma="0.5"
        color="orange"
        
        vClass="custom1"
        guiShape="evehicle"
        probability="0.6"
        
        lcSublane = "200000"
        lcPushy="1"
        lcAssertive="1"
        lcImpatience="1"
        lcTimeToImpatience="1"
        maxSpeedLat = "1000000"
        latAlignment="nice"/>

    <!-- S.P.C.O  -->
    <vType 
        id="SPCO"
        length="2.1" 
        width="0.8"
        minGap="0.5"
        accel="600"
        decel="7"
        emergencyDecel="10"
        maxSpeed="200"
        tau="0.1"

        sigma="0.5"
        color="green"
        
        vClass="custom2"
        guiShape="bus"
        probability="0"

        lcSublane = "200000"
        lcPushy="1"
        lcAssertive="1"
        lcImpatience="1"
        lcTimeToImpatience="1"
        maxSpeedLat = "1000000"
        latAlignment="nice"/>

    <vTypeDistribution id="SPCS" vTypes="passenger SPC SPCO"/>

    <vehicle id="0" type="passenger" depart="0.00">
        <route edges="gneE0"/>
    </vehicle>
    <vehicle id="1" type="passenger" depart="1.00">
        <route edges="-gneE0"/>
    </vehicle>
    <vehicle id="2" type="passenger" depart="10.00">
        <route edges="gneE0"/>
    </vehicle>
    <vehicle id="3" type="passenger" depart="11.00">
        <route edges="-gneE0"/>
    </vehicle>
    <vehicle id="4" type="passenger" depart="14.00">
        <route edges="gneE0"/>
    </vehicle>
    <vehicle id="5" type="passenger" depart="18.00">
        <route edges="-gneE0"/>
    </vehicle>
    <vehicle id="6" type="passenger" depart="22.00">
        <route edges="gneE0"/>
    </vehicle>
    <vehicle id="7" type="passenger" depart="26.00">
        <route edges="-gneE0"/>
    </vehicle>
    
    
    <vehicle id="31" type="SPC" depart="63.00">
        <route edges="gneE0"/>
    </vehicle>
    <vehicle id="32" type="SPC" depart="66.00">
        <route edges="-gneE0"/>
    </vehicle>
</routes>
