<?xml version="1.0" encoding="UTF-8"?>

<!-- generated on Fri 21 Feb 10:27:52 2020 by Eclipse SUMO netedit Version 1.2.0
<configuration xmlns:xsi="http://www.w3.org/2001/XMLSchema-instance" xsi:noNamespaceSchemaLocation="http://sumo.dlr.de/xsd/netconvertConfiguration.xsd">

    <input>
        <sumo-net-file value="/Users/jamie/Documents/University/ThirdYear/Project/GitHub/AdaptiveRoadRules/ARR1/Concept2(Workable)/PreFullImplementationTests/OncomingTrafficDistanceTest/CarOppositeDirection/SUMO/singleRoad2.net.xml"/>
    </input>

    <output>
        <output-file value="/Users/jamie/Documents/University/ThirdYear/Project/GitHub/AdaptiveRoadRules/ARR1/Concept2(Workable)/PreFullImplementationTests/OncomingTrafficDistanceTest/CarOppositeDirection/SUMO/singleRoad2.net.xml"/>
    </output>

    <processing>
        <geometry.max-grade.fix value="false"/>
        <offset.disable-normalization value="true"/>
        <lefthand value="false"/>
    </processing>

    <junctions>
        <no-internal-links value="true"/>
        <no-turnarounds value="true"/>
        <junctions.corner-detail value="5"/>
        <junctions.limit-turn-speed value="5.5"/>
        <rectangular-lane-cut value="false"/>
    </junctions>

    <pedestrian>
        <walkingareas value="false"/>
    </pedestrian>

</configuration>
-->

<net version="1.1" junctionCornerDetail="5" limitTurnSpeed="5.50" xmlns:xsi="http://www.w3.org/2001/XMLSchema-instance" xsi:noNamespaceSchemaLocation="http://sumo.dlr.de/xsd/net_file.xsd">

    <location netOffset="0.00,0.00" convBoundary="50.00,50.00,50.00,950.00" origBoundary="-10000000000.00,-10000000000.00,10000000000.00,10000000000.00" projParameter="!"/>

    <edge id="-gneE0" from="gneJ1" to="gneJ0" priority="-1">
        <lane id="-gneE0_0" index="0" disallow="custom2" speed="13.89" length="900.00" shape="46.80,950.00 46.80,50.00"/>
        <lane id="-gneE0_1" index="1" allow="custom2" speed="13.89" length="900.00" width="1.60" shape="49.20,950.00 49.20,50.00"/>
    </edge>
    <edge id="gneE0" from="gneJ0" to="gneJ1" priority="-1">
        <lane id="gneE0_0" index="0" disallow="custom2" speed="13.89" length="900.00" shape="53.20,50.00 53.20,950.00"/>
        <lane id="gneE0_1" index="1" allow="custom2" speed="13.89" length="900.00" width="1.60" shape="50.80,50.00 50.80,950.00"/>
    </edge>

    <junction id="gneJ0" type="dead_end" x="50.00" y="50.00" incLanes="-gneE0_0 -gneE0_1" intLanes="" shape="50.00,50.00 45.20,50.00 50.00,50.00"/>
    <junction id="gneJ1" type="dead_end" x="50.00" y="950.00" incLanes="gneE0_0 gneE0_1" intLanes="" shape="50.00,950.00 54.80,950.00 50.00,950.00"/>

</net>
