<?xml version="1.0" encoding="UTF-8"?>

<!-- generated on Tue Feb 18 14:49:41 2020 by Eclipse SUMO duarouter Version 1.2.0
<configuration xmlns:xsi="http://www.w3.org/2001/XMLSchema-instance" xsi:noNamespaceSchemaLocation="http://sumo.dlr.de/xsd/duarouterConfiguration.xsd">

    <input>
        <net-file value="singleRoad.net.xml"/>
        <route-files value="singleRoad.trip.xml"/>
    </input>

    <output>
        <output-file value="singleRoad.rou.xml"/>
        <alternatives-output value="singleRoad.rou.alt.xml"/>
    </output>

</configuration>
-->

<routes xmlns:xsi="http://www.w3.org/2001/XMLSchema-instance" xsi:noNamespaceSchemaLocation="http://sumo.dlr.de/xsd/routes_file.xsd">

    <!-- Default Vehicles -->
    <vType id="passenger" tau="0.1" minGap = "0.5" maxSpeed = "5" vClass="passenger" probability="0.4"/>
    <!-- <vType id="" vClass="" probability=""/> -->
    <!-- <vType id="" vClass="" probability=""/> -->
    <!-- <vType id="" vClass="" probability=""/> -->
    <!-- <vType id="" vClass="" probability=""/> -->

    <!-- S.P.C -->
    <vType 
        id="SPC"
        length="2.1" 
        width="0.8"
        minGap="0.5"
        accel="600"
        decel="7"
        emergencyDecel="10"
        maxSpeed="200"
        tau="0.1"

        sigma="0.5"
        color="orange"
        
        vClass="custom1"
        guiShape="evehicle"
        probability="0.6"
        
        lcSublane = "200000"
        lcPushy="1"
        lcAssertive="1"
        lcImpatience="1"
        lcTimeToImpatience="1"
        maxSpeedLat = "1000000"
        latAlignment="nice"/>

    <!-- S.P.C.O  -->
    <vType 
        id="SPCO"
        length="2.1" 
        width="0.8"
        minGap="0.5"
        accel="600"
        decel="7"
        emergencyDecel="10"
        maxSpeed="200"
        tau="0.1"

        sigma="0.5"
        color="green"
        
        vClass="custom2"
        guiShape="bus"
        probability="0"

        lcSublane = "200000"
        lcPushy="1"
        lcAssertive="1"
        lcImpatience="1"
        lcTimeToImpatience="1"
        maxSpeedLat = "1000000"
        latAlignment="nice"/>

    <vTypeDistribution id="SPCS" vTypes="passenger SPC SPCO"/>

    <vehicle id="0" type="passenger" depart="0.00">
        <route edges="gneE0"/>
    </vehicle>
    <vehicle id="1" type="passenger" depart="1.00">
        <route edges="-gneE0"/>
    </vehicle>
    <vehicle id="2" type="passenger" depart="10.00">
        <route edges="gneE0"/>
    </vehicle>
    <vehicle id="3" type="passenger" depart="11.00">
        <route edges="-gneE0"/>
    </vehicle>
    
    <!-- <vehicle id="11" type="SPC" depart="11.00">
        <route edges="-gneE0"/>
    </vehicle>
    <vehicle id="12" type="SPC" depart="12.00">
        <route edges="-gneE0"/>
    </vehicle>
    <vehicle id="13" type="SPC" depart="13.00">
        <route edges="gneE0"/>
    </vehicle>
    <vehicle id="19" type="SPC" depart="19.00">
        <route edges="gneE0"/>
    </vehicle>
    <vehicle id="23" type="SPC" depart="23.00">
        <route edges="-gneE0"/>
    </vehicle>
    <vehicle id="24" type="SPC" depart="24.00">
        <route edges="-gneE0"/>
    </vehicle>
    <vehicle id="25" type="SPC" depart="25.00">
        <route edges="gneE0"/>
    </vehicle>
    <vehicle id="29" type="SPC" depart="29.00">
        <route edges="gneE0"/>
    </vehicle> -->

    
    <!-- <vehicle id="30" type="SPC" depart="60.00"> -->
        <!-- <route edges="gneE0"/> -->
    <!-- </vehicle> -->
    <vehicle id="31" type="SPC" depart="63.00">
        <route edges="gneE0"/>
    </vehicle>
    <vehicle id="32" type="SPC" depart="66.00">
        <route edges="-gneE0"/>
    </vehicle>

    <!-- <vehicle id="35" type="SPCS" depart="35.00">
        <route edges="-gneE0"/>
    </vehicle>
    <vehicle id="36" type="SPCS" depart="36.00">
        <route edges="-gneE0"/>
    </vehicle>
    <vehicle id="43" type="SPCS" depart="43.00">
        <route edges="-gneE0"/>
    </vehicle>
    <vehicle id="44" type="SPCS" depart="44.00">
        <route edges="-gneE0"/>
    </vehicle>
    <vehicle id="45" type="SPCS" depart="45.00">
        <route edges="gneE0"/>
    </vehicle>
    <vehicle id="47" type="SPCS" depart="47.00">
        <route edges="-gneE0"/>
    </vehicle>
    <vehicle id="50" type="SPCS" depart="50.00">
        <route edges="gneE0"/>
    </vehicle>
    <vehicle id="52" type="SPCS" depart="52.00">
        <route edges="gneE0"/>
    </vehicle>
    <vehicle id="56" type="SPCS" depart="56.00">
        <route edges="-gneE0"/>
    </vehicle>
    <vehicle id="57" type="SPCS" depart="57.00">
        <route edges="gneE0"/>
    </vehicle>
    <vehicle id="60" type="SPCS" depart="60.00">
        <route edges="-gneE0"/>
    </vehicle>
    <vehicle id="62" type="SPCS" depart="62.00">
        <route edges="gneE0"/>
    </vehicle>
    <vehicle id="63" type="SPCS" depart="63.00">
        <route edges="-gneE0"/>
    </vehicle>
    <vehicle id="74" type="SPCS" depart="74.00">
        <route edges="gneE0"/>
    </vehicle>
    <vehicle id="75" type="SPCS" depart="75.00">
        <route edges="gneE0"/>
    </vehicle>
    <vehicle id="76" type="SPCS" depart="76.00">
        <route edges="gneE0"/>
    </vehicle>
    <vehicle id="77" type="SPCS" depart="77.00">
        <route edges="gneE0"/>
    </vehicle>
    <vehicle id="78" type="SPCS" depart="78.00">
        <route edges="gneE0"/>
    </vehicle>
    <vehicle id="80" type="SPCS" depart="80.00">
        <route edges="-gneE0"/>
    </vehicle>
    <vehicle id="81" type="SPCS" depart="81.00">
        <route edges="-gneE0"/>
    </vehicle>
    <vehicle id="82" type="SPCS" depart="82.00">
        <route edges="gneE0"/>
    </vehicle>
    <vehicle id="85" type="SPCS" depart="85.00">
        <route edges="-gneE0"/>
    </vehicle>
    <vehicle id="87" type="SPCS" depart="87.00">
        <route edges="-gneE0"/>
    </vehicle>
    <vehicle id="93" type="SPCS" depart="93.00">
        <route edges="gneE0"/>
    </vehicle>
    <vehicle id="96" type="SPCS" depart="96.00">
        <route edges="-gneE0"/>
    </vehicle>
    <vehicle id="97" type="SPCS" depart="97.00">
        <route edges="gneE0"/>
    </vehicle>
    <vehicle id="99" type="SPCS" depart="99.00">
        <route edges="gneE0"/>
    </vehicle>
    <vehicle id="100" type="SPCS" depart="100.00">
        <route edges="gneE0"/>
    </vehicle>
    <vehicle id="102" type="SPCS" depart="102.00">
        <route edges="-gneE0"/>
    </vehicle>
    <vehicle id="105" type="SPCS" depart="105.00">
        <route edges="gneE0"/>
    </vehicle>
    <vehicle id="108" type="SPCS" depart="108.00">
        <route edges="gneE0"/>
    </vehicle>
    <vehicle id="109" type="SPCS" depart="109.00">
        <route edges="gneE0"/>
    </vehicle>
    <vehicle id="110" type="SPCS" depart="110.00">
        <route edges="-gneE0"/>
    </vehicle>
    <vehicle id="112" type="SPCS" depart="112.00">
        <route edges="-gneE0"/>
    </vehicle>
    <vehicle id="115" type="SPCS" depart="115.00">
        <route edges="-gneE0"/>
    </vehicle>
    <vehicle id="116" type="SPCS" depart="116.00">
        <route edges="gneE0"/>
    </vehicle>
    <vehicle id="118" type="SPCS" depart="118.00">
        <route edges="-gneE0"/>
    </vehicle>
    <vehicle id="129" type="SPCS" depart="129.00">
        <route edges="-gneE0"/>
    </vehicle>
    <vehicle id="130" type="SPCS" depart="130.00">
        <route edges="gneE0"/>
    </vehicle>
    <vehicle id="132" type="SPCS" depart="132.00">
        <route edges="gneE0"/>
    </vehicle>
    <vehicle id="133" type="SPCS" depart="133.00">
        <route edges="-gneE0"/>
    </vehicle>
    <vehicle id="134" type="SPCS" depart="134.00">
        <route edges="gneE0"/>
    </vehicle>
    <vehicle id="135" type="SPCS" depart="135.00">
        <route edges="gneE0"/>
    </vehicle>
    <vehicle id="138" type="SPCS" depart="138.00">
        <route edges="-gneE0"/>
    </vehicle>
    <vehicle id="141" type="SPCS" depart="141.00">
        <route edges="-gneE0"/>
    </vehicle>
    <vehicle id="143" type="SPCS" depart="143.00">
        <route edges="-gneE0"/>
    </vehicle>
    <vehicle id="146" type="SPCS" depart="146.00">
        <route edges="gneE0"/>
    </vehicle>
    <vehicle id="147" type="SPCS" depart="147.00">
        <route edges="-gneE0"/>
    </vehicle>
    <vehicle id="148" type="SPCS" depart="148.00">
        <route edges="gneE0"/>
    </vehicle>
    <vehicle id="149" type="SPCS" depart="149.00">
        <route edges="-gneE0"/>
    </vehicle>
    <vehicle id="151" type="SPCS" depart="151.00">
        <route edges="-gneE0"/>
    </vehicle>
    <vehicle id="157" type="SPCS" depart="157.00">
        <route edges="-gneE0"/>
    </vehicle>
    <vehicle id="158" type="SPCS" depart="158.00">
        <route edges="-gneE0"/>
    </vehicle>
    <vehicle id="159" type="SPCS" depart="159.00">
        <route edges="-gneE0"/>
    </vehicle>
    <vehicle id="160" type="SPCS" depart="160.00">
        <route edges="-gneE0"/>
    </vehicle>
    <vehicle id="161" type="SPCS" depart="161.00">
        <route edges="-gneE0"/>
    </vehicle>
    <vehicle id="163" type="SPCS" depart="163.00">
        <route edges="gneE0"/>
    </vehicle>
    <vehicle id="164" type="SPCS" depart="164.00">
        <route edges="-gneE0"/>
    </vehicle>
    <vehicle id="165" type="SPCS" depart="165.00">
        <route edges="-gneE0"/>
    </vehicle>
    <vehicle id="166" type="SPCS" depart="166.00">
        <route edges="-gneE0"/>
    </vehicle>
    <vehicle id="169" type="SPCS" depart="169.00">
        <route edges="gneE0"/>
    </vehicle>
    <vehicle id="171" type="SPCS" depart="171.00">
        <route edges="gneE0"/>
    </vehicle>
    <vehicle id="176" type="SPCS" depart="176.00">
        <route edges="-gneE0"/>
    </vehicle>
    <vehicle id="177" type="SPCS" depart="177.00">
        <route edges="-gneE0"/>
    </vehicle>
    <vehicle id="178" type="SPCS" depart="178.00">
        <route edges="gneE0"/>
    </vehicle>
    <vehicle id="180" type="SPCS" depart="180.00">
        <route edges="gneE0"/>
    </vehicle>
    <vehicle id="183" type="SPCS" depart="183.00">
        <route edges="gneE0"/>
    </vehicle>
    <vehicle id="185" type="SPCS" depart="185.00">
        <route edges="-gneE0"/>
    </vehicle>
    <vehicle id="186" type="SPCS" depart="186.00">
        <route edges="-gneE0"/>
    </vehicle>
    <vehicle id="188" type="SPCS" depart="188.00">
        <route edges="gneE0"/>
    </vehicle>
    <vehicle id="189" type="SPCS" depart="189.00">
        <route edges="-gneE0"/>
    </vehicle>
    <vehicle id="190" type="SPCS" depart="190.00">
        <route edges="gneE0"/>
    </vehicle>
    <vehicle id="192" type="SPCS" depart="192.00">
        <route edges="gneE0"/>
    </vehicle>
    <vehicle id="194" type="SPCS" depart="194.00">
        <route edges="-gneE0"/>
    </vehicle>
    <vehicle id="196" type="SPCS" depart="196.00">
        <route edges="-gneE0"/>
    </vehicle>
    <vehicle id="197" type="SPCS" depart="197.00">
        <route edges="gneE0"/>
    </vehicle>
    <vehicle id="198" type="SPCS" depart="198.00">
        <route edges="gneE0"/>
    </vehicle>
    <vehicle id="199" type="SPCS" depart="199.00">
        <route edges="-gneE0"/>
    </vehicle> -->
</routes>
