<?xml version="1.0" encoding="UTF-8"?>

<!-- generated on Fri 21 Feb 08:38:52 2020 by Eclipse SUMO netedit Version 1.2.0
<configuration xmlns:xsi="http://www.w3.org/2001/XMLSchema-instance" xsi:noNamespaceSchemaLocation="http://sumo.dlr.de/xsd/netconvertConfiguration.xsd">

    <input>
        <sumo-net-file value="/Users/jamie/Documents/University/ThirdYear/Project/GitHub/AdaptiveRoadRules/ARR1/Concept2(Workable)/PreFullImplementationTests/OncomingTrafficDistanceTest/CarOppositeDirection/SUMO/singleRoad.net.xml"/>
    </input>

    <output>
        <output-file value="/Users/jamie/Documents/University/ThirdYear/Project/GitHub/AdaptiveRoadRules/ARR1/Concept2(Workable)/PreFullImplementationTests/OncomingTrafficDistanceTest/CarOppositeDirection/SUMO/singleRoad.net.xml"/>
    </output>

    <processing>
        <geometry.max-grade.fix value="false"/>
        <offset.disable-normalization value="true"/>
        <lefthand value="false"/>
    </processing>

    <junctions>
        <no-internal-links value="true"/>
        <no-turnarounds value="true"/>
        <junctions.corner-detail value="5"/>
        <junctions.limit-turn-speed value="5.5"/>
        <rectangular-lane-cut value="false"/>
    </junctions>

    <pedestrian>
        <walkingareas value="false"/>
    </pedestrian>

</configuration>
-->

<net version="1.1" junctionCornerDetail="5" limitTurnSpeed="5.50" xmlns:xsi="http://www.w3.org/2001/XMLSchema-instance" xsi:noNamespaceSchemaLocation="http://sumo.dlr.de/xsd/net_file.xsd">

    <location netOffset="0.00,0.00" convBoundary="-22.64,30.00,203.91,41.01" origBoundary="-10000000000.00,-10000000000.00,10000000000.00,10000000000.00" projParameter="!"/>

    <edge id="-gneE0" from="gneJ1" to="gneJ0" priority="-1" spreadType="center" length="1000.00" shape="200.01,33.20 0.00,33.20">
        <lane id="-gneE0_0" index="0" disallow="custom2" speed="13.89" length="1000.00" shape="195.20,34.00 3.16,34.00"/>
        <lane id="-gneE0_1" index="1" allow="custom2" speed="13.89" length="1000.00" width="1.60" shape="195.20,31.60 3.16,31.60"/>
    </edge>
    <edge id="-gneE5" from="gneJ7" to="gneJ1" priority="-1">
        <lane id="-gneE5_0" index="0" speed="13.89" length="11.68" shape="199.39,42.62 196.70,35.06"/>
        <lane id="-gneE5_1" index="1" speed="13.89" length="11.68" shape="202.40,41.55 199.72,33.99"/>
    </edge>
    <edge id="-gneE6" from="gneJ8" to="gneJ0" priority="-1">
        <lane id="-gneE6_0" index="0" speed="13.89" length="26.73" shape="-24.59,35.71 -1.40,25.37"/>
        <lane id="-gneE6_1" index="1" speed="13.89" length="26.73" shape="-23.29,38.63 -0.10,28.29"/>
    </edge>
    <edge id="gneE0" from="gneJ0" to="gneJ1" priority="-1" length="1000.00">
        <lane id="gneE0_0" index="0" disallow="custom2" speed="13.89" length="1000.00" shape="3.16,26.80 195.20,26.80"/>
        <lane id="gneE0_1" index="1" allow="custom2" speed="13.89" length="1000.00" width="1.60" shape="3.16,29.20 195.20,29.20"/>
    </edge>
    <edge id="gneE5" from="gneJ1" to="gneJ7" priority="-1">
        <lane id="gneE5_0" index="0" speed="13.89" length="11.68" shape="205.75,31.85 208.43,39.40"/>
        <lane id="gneE5_1" index="1" speed="13.89" length="11.68" shape="202.74,32.92 205.42,40.47"/>
    </edge>
    <edge id="gneE6" from="gneJ0" to="gneJ8" priority="-1">
        <lane id="gneE6_0" index="0" speed="13.89" length="26.73" shape="2.51,34.14 -20.69,44.47"/>
        <lane id="gneE6_1" index="1" speed="13.89" length="26.73" shape="1.20,31.22 -21.99,41.55"/>
    </edge>

    <junction id="gneJ0" type="priority" x="0.00" y="30.00" incLanes="-gneE0_0 -gneE0_1 -gneE6_0 -gneE6_1" intLanes="" shape="3.16,35.60 3.16,25.20 -2.05,23.91">
        <request index="0" response="0000" foes="0000"/>
        <request index="1" response="0000" foes="0000"/>
        <request index="2" response="0000" foes="0000"/>
        <request index="3" response="0000" foes="0000"/>
    </junction>
    <junction id="gneJ1" type="priority" x="200.00" y="30.00" incLanes="-gneE5_0 -gneE5_1 gneE0_0 gneE0_1" intLanes="" shape="195.20,35.60 207.26,31.32 206.32,29.45 204.95,27.92 203.16,26.73 200.93,25.88 198.28,25.37 195.20,25.20">
        <request index="0" response="0000" foes="0000"/>
        <request index="1" response="0000" foes="0000"/>
        <request index="2" response="0000" foes="0000"/>
        <request index="3" response="0000" foes="0000"/>
    </junction>
    <junction id="gneJ7" type="dead_end" x="203.91" y="41.01" incLanes="gneE5_0 gneE5_1" intLanes="" shape="203.91,41.01 209.94,38.87 203.91,41.01"/>
    <junction id="gneJ8" type="dead_end" x="-22.64" y="40.09" incLanes="gneE6_0 gneE6_1" intLanes="" shape="-22.64,40.09 -20.03,45.94 -22.64,40.09"/>

    <connection from="-gneE0" to="gneE6" fromLane="0" toLane="0" dir="s" state="M"/>
    <connection from="-gneE0" to="gneE6" fromLane="1" toLane="1" dir="s" state="M"/>
    <connection from="-gneE5" to="-gneE0" fromLane="0" toLane="0" dir="r" state="M"/>
    <connection from="-gneE5" to="-gneE0" fromLane="1" toLane="1" dir="r" state="M"/>
    <connection from="-gneE6" to="gneE0" fromLane="0" toLane="0" dir="s" state="M"/>
    <connection from="-gneE6" to="gneE0" fromLane="1" toLane="1" dir="s" state="M"/>
    <connection from="gneE0" to="gneE5" fromLane="0" toLane="0" dir="l" state="M"/>
    <connection from="gneE0" to="gneE5" fromLane="1" toLane="1" dir="l" state="M"/>

</net>
