<?xml version="1.0" encoding="UTF-8"?>
<!-- generated on 2020-04-14 10:15:23.156642 by $Id$
  options: -n test.net.xml -o 700Vehicles.trips.xml -b 0 -e 1000 -p 1.428571429
-->
<routes xmlns:xsi="http://www.w3.org/2001/XMLSchema-instance" xsi:noNamespaceSchemaLocation="http://sumo.dlr.de/xsd/routes_file.xsd">
    <trip id="0" depart="0.00" from="D1C1" to="B3B4"/>
    <trip id="1" depart="1.43" from="C4B4" to="E4E3"/>
    <trip id="2" depart="2.86" from="B2B1" to="D3D2"/>
    <trip id="3" depart="4.29" from="A1A2" to="C2C3"/>
    <trip id="4" depart="5.71" from="A0B0" to="A1A2"/>
    <trip id="5" depart="7.14" from="D1D0" to="A0B0"/>
    <trip id="6" depart="8.57" from="B2B3" to="D2D3"/>
    <trip id="7" depart="10.00" from="D2D3" to="C1D1"/>
    <trip id="8" depart="11.43" from="D1C1" to="C3C4"/>
    <trip id="9" depart="12.86" from="D2C2" to="C2B2"/>
    <trip id="10" depart="14.29" from="A2A1" to="E3D3"/>
    <trip id="11" depart="15.71" from="E0E1" to="D3C3"/>
    <trip id="12" depart="17.14" from="D3E3" to="E3D3"/>
    <trip id="13" depart="18.57" from="B2C2" to="B0A0"/>
    <trip id="14" depart="20.00" from="A3B3" to="B2A2"/>
    <trip id="15" depart="21.43" from="C3D3" to="B1A1"/>
    <trip id="16" depart="22.86" from="E0E1" to="D1D0"/>
    <trip id="17" depart="24.29" from="C0B0" to="B3A3"/>
    <trip id="18" depart="25.71" from="C2B2" to="A2A1"/>
    <trip id="19" depart="27.14" from="D3D2" to="D1E1"/>
    <trip id="20" depart="28.57" from="A2B2" to="E2E1"/>
    <trip id="21" depart="30.00" from="A0B0" to="C0D0"/>
    <trip id="22" depart="31.43" from="D2E2" to="D3C3"/>
    <trip id="23" depart="32.86" from="B3B2" to="C2C3"/>
    <trip id="24" depart="34.29" from="C4B4" to="B4C4"/>
    <trip id="25" depart="35.71" from="E1D1" to="D2D3"/>
    <trip id="26" depart="37.14" from="C1D1" to="C3C4"/>
    <trip id="27" depart="38.57" from="C0B0" to="D2D1"/>
    <trip id="28" depart="40.00" from="B1B0" to="C4C3"/>
    <trip id="29" depart="41.43" from="B3C3" to="E1E2"/>
    <trip id="30" depart="42.86" from="A1A2" to="A1B1"/>
    <trip id="31" depart="44.29" from="E4D4" to="D1D0"/>
    <trip id="32" depart="45.71" from="A0B0" to="D1D0"/>
    <trip id="33" depart="47.14" from="C3B3" to="C1D1"/>
    <trip id="34" depart="48.57" from="B1B2" to="C3C2"/>
    <trip id="35" depart="50.00" from="E1E0" to="A4B4"/>
    <trip id="36" depart="51.43" from="B4B3" to="D4D3"/>
    <trip id="37" depart="52.86" from="E0E1" to="D1D2"/>
    <trip id="38" depart="54.29" from="C4B4" to="C2C3"/>
    <trip id="39" depart="55.71" from="B3B2" to="B2B3"/>
    <trip id="40" depart="57.14" from="B3B2" to="C3C4"/>
    <trip id="41" depart="58.57" from="A1B1" to="D1D0"/>
    <trip id="42" depart="60.00" from="A2A1" to="E1E2"/>
    <trip id="43" depart="61.43" from="E4D4" to="B4B3"/>
    <trip id="44" depart="62.86" from="B2C2" to="D2C2"/>
    <trip id="45" depart="64.29" from="B3A3" to="D4E4"/>
    <trip id="46" depart="65.71" from="A3A2" to="E3E2"/>
    <trip id="47" depart="67.14" from="B0B1" to="C4D4"/>
    <trip id="48" depart="68.57" from="E0E1" to="A0B0"/>
    <trip id="49" depart="70.00" from="B2B3" to="C1B1"/>
    <trip id="50" depart="71.43" from="A3A2" to="A0A1"/>
    <trip id="51" depart="72.86" from="D2D3" to="D1E1"/>
    <trip id="52" depart="74.29" from="C2B2" to="C3C4"/>
    <trip id="53" depart="75.71" from="E0D0" to="C4B4"/>
    <trip id="54" depart="77.14" from="A4B4" to="B0B1"/>
    <trip id="55" depart="78.57" from="E4D4" to="B1B2"/>
    <trip id="56" depart="80.00" from="D1C1" to="E0E1"/>
    <trip id="57" depart="81.43" from="A2A3" to="C4B4"/>
    <trip id="58" depart="82.86" from="B2C2" to="D0E0"/>
    <trip id="59" depart="84.29" from="D2E2" to="C4C3"/>
    <trip id="60" depart="85.71" from="B3A3" to="A2A1"/>
    <trip id="61" depart="87.14" from="A4A3" to="B3B4"/>
    <trip id="62" depart="88.57" from="A2A1" to="B0A0"/>
    <trip id="63" depart="90.00" from="B3A3" to="D2C2"/>
    <trip id="64" depart="91.43" from="A1A0" to="B1B2"/>
    <trip id="65" depart="92.86" from="B3B4" to="A0A1"/>
    <trip id="66" depart="94.29" from="D3C3" to="C1C0"/>
    <trip id="67" depart="95.71" from="E4D4" to="D2D1"/>
    <trip id="68" depart="97.14" from="B3A3" to="C3C4"/>
    <trip id="69" depart="98.57" from="C2C1" to="E3E2"/>
    <trip id="70" depart="100.00" from="D4C4" to="D2C2"/>
    <trip id="71" depart="101.43" from="B2B3" to="C4D4"/>
    <trip id="72" depart="102.86" from="C1D1" to="E3E2"/>
    <trip id="73" depart="104.29" from="A4A3" to="C0B0"/>
    <trip id="74" depart="105.71" from="A3B3" to="C1D1"/>
    <trip id="75" depart="107.14" from="D2D1" to="D3E3"/>
    <trip id="76" depart="108.57" from="E2D2" to="C4B4"/>
    <trip id="77" depart="110.00" from="D2D1" to="B4A4"/>
    <trip id="78" depart="111.43" from="A3A4" to="B3A3"/>
    <trip id="79" depart="112.86" from="A3A4" to="C4B4"/>
    <trip id="80" depart="114.29" from="B2C2" to="B1B2"/>
    <trip id="81" depart="115.71" from="C1B1" to="C3C4"/>
    <trip id="82" depart="117.14" from="D4D3" to="B2B1"/>
    <trip id="83" depart="118.57" from="B4C4" to="D1C1"/>
    <trip id="84" depart="120.00" from="B0C0" to="C3C2"/>
    <trip id="85" depart="121.43" from="D3D2" to="A2B2"/>
    <trip id="86" depart="122.86" from="A1A0" to="A4B4"/>
    <trip id="87" depart="124.29" from="C3C2" to="E4E3"/>
    <trip id="88" depart="125.71" from="B3B2" to="B2B3"/>
    <trip id="89" depart="127.14" from="E3E2" to="D2E2"/>
    <trip id="90" depart="128.57" from="B3B2" to="B3B2"/>
    <trip id="91" depart="130.00" from="D1D0" to="B3B4"/>
    <trip id="92" depart="131.43" from="E2E1" to="A0A1"/>
    <trip id="93" depart="132.86" from="E4D4" to="A2B2"/>
    <trip id="94" depart="134.29" from="D3C3" to="D1D0"/>
    <trip id="95" depart="135.71" from="A4A3" to="B3B4"/>
    <trip id="96" depart="137.14" from="D3D4" to="E3D3"/>
    <trip id="97" depart="138.57" from="E2E3" to="B1C1"/>
    <trip id="98" depart="140.00" from="E2E3" to="D3E3"/>
    <trip id="99" depart="141.43" from="B2B1" to="D4D3"/>
    <trip id="100" depart="142.86" from="B3B4" to="D3D4"/>
    <trip id="101" depart="144.29" from="B1C1" to="D2D3"/>
    <trip id="102" depart="145.71" from="C2C1" to="D2C2"/>
    <trip id="103" depart="147.14" from="C1D1" to="E2D2"/>
    <trip id="104" depart="148.57" from="D2D3" to="B3B2"/>
    <trip id="105" depart="150.00" from="A1A2" to="A1A0"/>
    <trip id="106" depart="151.43" from="B1B2" to="A4A3"/>
    <trip id="107" depart="152.86" from="D4E4" to="D4E4"/>
    <trip id="108" depart="154.29" from="C2B2" to="C3D3"/>
    <trip id="109" depart="155.71" from="D2D1" to="B0A0"/>
    <trip id="110" depart="157.14" from="D1D2" to="B2A2"/>
    <trip id="111" depart="158.57" from="A0A1" to="E2D2"/>
    <trip id="112" depart="160.00" from="C3C2" to="B2C2"/>
    <trip id="113" depart="161.43" from="D4E4" to="C3D3"/>
    <trip id="114" depart="162.86" from="B2A2" to="D2E2"/>
    <trip id="115" depart="164.29" from="E1E2" to="B4A4"/>
    <trip id="116" depart="165.71" from="D0D1" to="C2C3"/>
    <trip id="117" depart="167.14" from="D3D2" to="D4C4"/>
    <trip id="118" depart="168.57" from="B0A0" to="D4E4"/>
    <trip id="119" depart="170.00" from="D2E2" to="E3E4"/>
    <trip id="120" depart="171.43" from="A2A1" to="E1D1"/>
    <trip id="121" depart="172.86" from="D0E0" to="A4B4"/>
    <trip id="122" depart="174.29" from="C0D0" to="D4D3"/>
    <trip id="123" depart="175.71" from="C1C2" to="D2C2"/>
    <trip id="124" depart="177.14" from="D1D2" to="E3E2"/>
    <trip id="125" depart="178.57" from="B2A2" to="A0A1"/>
    <trip id="126" depart="180.00" from="D3D2" to="D1C1"/>
    <trip id="127" depart="181.43" from="D2C2" to="C4C3"/>
    <trip id="128" depart="182.86" from="D4C4" to="D3E3"/>
    <trip id="129" depart="184.29" from="B4A4" to="A4A3"/>
    <trip id="130" depart="185.71" from="B3B4" to="B0C0"/>
    <trip id="131" depart="187.14" from="B2B3" to="D3E3"/>
    <trip id="132" depart="188.57" from="E1E0" to="B3B2"/>
    <trip id="133" depart="190.00" from="E2E3" to="B3B2"/>
    <trip id="134" depart="191.43" from="E3E2" to="A1B1"/>
    <trip id="135" depart="192.86" from="B1B0" to="E1E0"/>
    <trip id="136" depart="194.29" from="D4C4" to="B0C0"/>
    <trip id="137" depart="195.71" from="C0B0" to="B3B2"/>
    <trip id="138" depart="197.14" from="D1E1" to="B0B1"/>
    <trip id="139" depart="198.57" from="E2E1" to="B2B3"/>
    <trip id="140" depart="200.00" from="C2C1" to="D1E1"/>
    <trip id="141" depart="201.43" from="B3A3" to="A4A3"/>
    <trip id="142" depart="202.86" from="A1A2" to="E2E3"/>
    <trip id="143" depart="204.29" from="B4A4" to="B4B3"/>
    <trip id="144" depart="205.71" from="B3B4" to="D0D1"/>
    <trip id="145" depart="207.14" from="C2C3" to="C3B3"/>
    <trip id="146" depart="208.57" from="C1C2" to="D2D3"/>
    <trip id="147" depart="210.00" from="C0D0" to="E0D0"/>
    <trip id="148" depart="211.43" from="C3B3" to="C2B2"/>
    <trip id="149" depart="212.86" from="C1C2" to="A0B0"/>
    <trip id="150" depart="214.29" from="A2A3" to="B4C4"/>
    <trip id="151" depart="215.71" from="C2D2" to="B4A4"/>
    <trip id="152" depart="217.14" from="C1C0" to="D2E2"/>
    <trip id="153" depart="218.57" from="D1D2" to="B2B3"/>
    <trip id="154" depart="220.00" from="E3D3" to="C3C2"/>
    <trip id="155" depart="221.43" from="B1A1" to="D4D3"/>
    <trip id="156" depart="222.86" from="D4E4" to="A2B2"/>
    <trip id="157" depart="224.29" from="D3D2" to="D1E1"/>
    <trip id="158" depart="225.71" from="B3C3" to="D3D2"/>
    <trip id="159" depart="227.14" from="A0A1" to="B3B2"/>
    <trip id="160" depart="228.57" from="A1B1" to="A4A3"/>
    <trip id="161" depart="230.00" from="D1D0" to="B1B0"/>
    <trip id="162" depart="231.43" from="E1E0" to="C1B1"/>
    <trip id="163" depart="232.86" from="B3A3" to="B3B2"/>
    <trip id="164" depart="234.29" from="B2B1" to="A3A2"/>
    <trip id="165" depart="235.71" from="A0B0" to="E4E3"/>
    <trip id="166" depart="237.14" from="B4B3" to="E4E3"/>
    <trip id="167" depart="238.57" from="E0E1" to="B3A3"/>
    <trip id="168" depart="240.00" from="A2A1" to="A4A3"/>
    <trip id="169" depart="241.43" from="D4C4" to="A2B2"/>
    <trip id="170" depart="242.86" from="E3E2" to="B2B1"/>
    <trip id="171" depart="244.29" from="A2B2" to="D3D4"/>
    <trip id="172" depart="245.71" from="C4C3" to="D0D1"/>
    <trip id="173" depart="247.14" from="C1C2" to="B0B1"/>
    <trip id="174" depart="248.57" from="A3A4" to="E1E2"/>
    <trip id="175" depart="250.00" from="E2E3" to="C3D3"/>
    <trip id="176" depart="251.43" from="B1A1" to="B3B4"/>
    <trip id="177" depart="252.86" from="E3D3" to="B4B3"/>
    <trip id="178" depart="254.29" from="A1A0" to="A2A3"/>
    <trip id="179" depart="255.71" from="E1D1" to="B2B1"/>
    <trip id="180" depart="257.14" from="B0B1" to="D2E2"/>
    <trip id="181" depart="258.57" from="B3B4" to="D4D3"/>
    <trip id="182" depart="260.00" from="A4A3" to="A4A3"/>
    <trip id="183" depart="261.43" from="E3E2" to="A1B1"/>
    <trip id="184" depart="262.86" from="C1C0" to="A0A1"/>
    <trip id="185" depart="264.29" from="E4E3" to="A0A1"/>
    <trip id="186" depart="265.71" from="E3D3" to="B4A4"/>
    <trip id="187" depart="267.14" from="D1E1" to="E2D2"/>
    <trip id="188" depart="268.57" from="A4B4" to="A0B0"/>
    <trip id="189" depart="270.00" from="A0B0" to="B0A0"/>
    <trip id="190" depart="271.43" from="C0B0" to="B2A2"/>
    <trip id="191" depart="272.86" from="D1C1" to="C2B2"/>
    <trip id="192" depart="274.29" from="C2D2" to="B3B4"/>
    <trip id="193" depart="275.71" from="D1D0" to="B4C4"/>
    <trip id="194" depart="277.14" from="C0C1" to="B4C4"/>
    <trip id="195" depart="278.57" from="E4E3" to="C0C1"/>
    <trip id="196" depart="280.00" from="C0B0" to="B3A3"/>
    <trip id="197" depart="281.43" from="C1C0" to="B0B1"/>
    <trip id="198" depart="282.86" from="A0B0" to="B1B2"/>
    <trip id="199" depart="284.29" from="A3A4" to="A0B0"/>
    <trip id="200" depart="285.71" from="B3B2" to="B1B0"/>
    <trip id="201" depart="287.14" from="E3E2" to="C3B3"/>
    <trip id="202" depart="288.57" from="A3B3" to="C2C3"/>
    <trip id="203" depart="290.00" from="C2C1" to="E3E2"/>
    <trip id="204" depart="291.43" from="D0C0" to="B2A2"/>
    <trip id="205" depart="292.86" from="B3A3" to="B1C1"/>
    <trip id="206" depart="294.29" from="D3D4" to="B4C4"/>
    <trip id="207" depart="295.71" from="B1B2" to="B2B3"/>
    <trip id="208" depart="297.14" from="B3B2" to="B1A1"/>
    <trip id="209" depart="298.57" from="E4D4" to="E0D0"/>
    <trip id="210" depart="300.00" from="A3A2" to="D1C1"/>
    <trip id="211" depart="301.43" from="D1C1" to="B2B3"/>
    <trip id="212" depart="302.86" from="B3C3" to="D3C3"/>
    <trip id="213" depart="304.29" from="A0A1" to="B1B2"/>
    <trip id="214" depart="305.71" from="D4D3" to="C2C1"/>
    <trip id="215" depart="307.14" from="E0D0" to="C4D4"/>
    <trip id="216" depart="308.57" from="D3E3" to="A3B3"/>
    <trip id="217" depart="310.00" from="B2B3" to="B0C0"/>
    <trip id="218" depart="311.43" from="B4C4" to="C4D4"/>
    <trip id="219" depart="312.86" from="B3B4" to="D4D3"/>
    <trip id="220" depart="314.29" from="C0D0" to="A2A3"/>
    <trip id="221" depart="315.71" from="C2D2" to="D4D3"/>
    <trip id="222" depart="317.14" from="D0E0" to="C2C3"/>
    <trip id="223" depart="318.57" from="D2D3" to="B1B0"/>
    <trip id="224" depart="320.00" from="A1A2" to="D0E0"/>
    <trip id="225" depart="321.43" from="B1A1" to="C3C4"/>
    <trip id="226" depart="322.86" from="B1B0" to="D1D0"/>
    <trip id="227" depart="324.29" from="D3E3" to="A3A2"/>
    <trip id="228" depart="325.71" from="B3B4" to="C3B3"/>
    <trip id="229" depart="327.14" from="C4B4" to="C3D3"/>
    <trip id="230" depart="328.57" from="C4C3" to="B1A1"/>
    <trip id="231" depart="330.00" from="A1A2" to="E4E3"/>
    <trip id="232" depart="331.43" from="A0B0" to="D0D1"/>
    <trip id="233" depart="332.86" from="B3B4" to="B1A1"/>
    <trip id="234" depart="334.29" from="C1C2" to="D1C1"/>
    <trip id="235" depart="335.71" from="C0D0" to="D3E3"/>
    <trip id="236" depart="337.14" from="B1B0" to="D3D2"/>
    <trip id="237" depart="338.57" from="B2C2" to="B1A1"/>
    <trip id="238" depart="340.00" from="E0D0" to="D1E1"/>
    <trip id="239" depart="341.43" from="D3E3" to="C1C0"/>
    <trip id="240" depart="342.86" from="B2A2" to="D1D0"/>
    <trip id="241" depart="344.29" from="A4B4" to="C3C2"/>
    <trip id="242" depart="345.71" from="B3B4" to="E3E4"/>
    <trip id="243" depart="347.14" from="C3D3" to="C1D1"/>
    <trip id="244" depart="348.57" from="D3C3" to="C2B2"/>
    <trip id="245" depart="350.00" from="E4D4" to="C0C1"/>
    <trip id="246" depart="351.43" from="C4C3" to="D3D2"/>
    <trip id="247" depart="352.86" from="D3E3" to="A4A3"/>
    <trip id="248" depart="354.29" from="B4A4" to="B3B4"/>
    <trip id="249" depart="355.71" from="A1A0" to="B1B2"/>
    <trip id="250" depart="357.14" from="D4E4" to="B0A0"/>
    <trip id="251" depart="358.57" from="B4C4" to="B4B3"/>
    <trip id="252" depart="360.00" from="C4D4" to="A3A4"/>
    <trip id="253" depart="361.43" from="C2D2" to="A1A2"/>
    <trip id="254" depart="362.86" from="D1D0" to="D0D1"/>
    <trip id="255" depart="364.29" from="A4A3" to="C3C2"/>
    <trip id="256" depart="365.71" from="E3D3" to="D3D4"/>
    <trip id="257" depart="367.14" from="D2C2" to="A3A4"/>
    <trip id="258" depart="368.57" from="C3C2" to="B1C1"/>
    <trip id="259" depart="370.00" from="B4B3" to="D1D2"/>
    <trip id="260" depart="371.43" from="C3D3" to="B0B1"/>
    <trip id="261" depart="372.86" from="C3D3" to="C0C1"/>
    <trip id="262" depart="374.29" from="D2D3" to="D2E2"/>
    <trip id="263" depart="375.71" from="D0E0" to="A1A0"/>
    <trip id="264" depart="377.14" from="E3D3" to="B4A4"/>
    <trip id="265" depart="378.57" from="A4A3" to="A0A1"/>
    <trip id="266" depart="380.00" from="C2D2" to="E1D1"/>
    <trip id="267" depart="381.43" from="C0D0" to="C2D2"/>
    <trip id="268" depart="382.86" from="D4D3" to="C1D1"/>
    <trip id="269" depart="384.29" from="D1D2" to="B1A1"/>
    <trip id="270" depart="385.71" from="D4C4" to="C1C0"/>
    <trip id="271" depart="387.14" from="C0D0" to="A2A3"/>
    <trip id="272" depart="388.57" from="B1B0" to="B1A1"/>
    <trip id="273" depart="390.00" from="B1B2" to="D2D3"/>
    <trip id="274" depart="391.43" from="C4D4" to="D1D0"/>
    <trip id="275" depart="392.86" from="A2A3" to="B3B4"/>
    <trip id="276" depart="394.29" from="C1D1" to="C3C4"/>
    <trip id="277" depart="395.71" from="C1D1" to="C2C3"/>
    <trip id="278" depart="397.14" from="A2A3" to="A2B2"/>
    <trip id="279" depart="398.57" from="C3C2" to="A4B4"/>
    <trip id="280" depart="400.00" from="E1D1" to="D1E1"/>
    <trip id="281" depart="401.43" from="D3D2" to="B3B2"/>
    <trip id="282" depart="402.86" from="D4D3" to="C0B0"/>
    <trip id="283" depart="404.29" from="B2C2" to="C2B2"/>
    <trip id="284" depart="405.71" from="A2A1" to="E3E4"/>
    <trip id="285" depart="407.14" from="D1D0" to="D1E1"/>
    <trip id="286" depart="408.57" from="B0B1" to="A3A4"/>
    <trip id="287" depart="410.00" from="C0C1" to="E0E1"/>
    <trip id="288" depart="411.43" from="B4A4" to="C2D2"/>
    <trip id="289" depart="412.86" from="C2D2" to="A2A1"/>
    <trip id="290" depart="414.29" from="A1A0" to="C3C2"/>
    <trip id="291" depart="415.71" from="D3C3" to="C3C2"/>
    <trip id="292" depart="417.14" from="D3D2" to="B4B3"/>
    <trip id="293" depart="418.57" from="C2B2" to="E3E2"/>
    <trip id="294" depart="420.00" from="D0D1" to="B1B0"/>
    <trip id="295" depart="421.43" from="C2C1" to="D0E0"/>
    <trip id="296" depart="422.86" from="C4D4" to="A2A1"/>
    <trip id="297" depart="424.29" from="D0D1" to="E1E0"/>
    <trip id="298" depart="425.71" from="E0D0" to="A3A4"/>
    <trip id="299" depart="427.14" from="D2D3" to="A3A4"/>
    <trip id="300" depart="428.57" from="D0E0" to="B0A0"/>
    <trip id="301" depart="430.00" from="C1C2" to="C2C1"/>
    <trip id="302" depart="431.43" from="D3D2" to="C3D3"/>
    <trip id="303" depart="432.86" from="C1C0" to="B3B2"/>
    <trip id="304" depart="434.29" from="B0C0" to="B0B1"/>
    <trip id="305" depart="435.71" from="E0D0" to="E4D4"/>
    <trip id="306" depart="437.14" from="E2E1" to="A0B0"/>
    <trip id="307" depart="438.57" from="D3E3" to="C0C1"/>
    <trip id="308" depart="440.00" from="A3B3" to="B2A2"/>
    <trip id="309" depart="441.43" from="A3A2" to="E3D3"/>
    <trip id="310" depart="442.86" from="C3C2" to="E0E1"/>
    <trip id="311" depart="444.29" from="C2C3" to="D3E3"/>
    <trip id="312" depart="445.71" from="E2E3" to="B2C2"/>
    <trip id="313" depart="447.14" from="C1D1" to="A1A2"/>
    <trip id="314" depart="448.57" from="C2B2" to="D4C4"/>
    <trip id="315" depart="450.00" from="D1E1" to="B4B3"/>
    <trip id="316" depart="451.43" from="D3E3" to="D1C1"/>
    <trip id="317" depart="452.86" from="E0E1" to="C0B0"/>
    <trip id="318" depart="454.29" from="A0A1" to="A0A1"/>
    <trip id="319" depart="455.71" from="C1C0" to="E0D0"/>
    <trip id="320" depart="457.14" from="C1C0" to="D2E2"/>
    <trip id="321" depart="458.57" from="A1A0" to="B4B3"/>
    <trip id="322" depart="460.00" from="B2A2" to="A3A2"/>
    <trip id="323" depart="461.43" from="C3B3" to="E2D2"/>
    <trip id="324" depart="462.86" from="D4C4" to="C0B0"/>
    <trip id="325" depart="464.29" from="C4D4" to="D1D0"/>
    <trip id="326" depart="465.71" from="C4C3" to="D4E4"/>
    <trip id="327" depart="467.14" from="B2A2" to="C1D1"/>
    <trip id="328" depart="468.57" from="C3C2" to="D0D1"/>
    <trip id="329" depart="470.00" from="D4E4" to="D3D2"/>
    <trip id="330" depart="471.43" from="A3B3" to="C2C1"/>
    <trip id="331" depart="472.86" from="C4D4" to="E1D1"/>
    <trip id="332" depart="474.29" from="A2A1" to="C4D4"/>
    <trip id="333" depart="475.71" from="B1C1" to="D4E4"/>
    <trip id="334" depart="477.14" from="C3B3" to="A1A0"/>
    <trip id="335" depart="478.57" from="C0D0" to="E3E4"/>
    <trip id="336" depart="480.00" from="A3B3" to="E3E2"/>
    <trip id="337" depart="481.43" from="C2C1" to="B3A3"/>
    <trip id="338" depart="482.86" from="E2D2" to="E1E2"/>
    <trip id="339" depart="484.29" from="E2D2" to="E1E0"/>
    <trip id="340" depart="485.71" from="B2B3" to="D3C3"/>
    <trip id="341" depart="487.14" from="E4E3" to="B2B3"/>
    <trip id="342" depart="488.57" from="D3E3" to="E0E1"/>
    <trip id="343" depart="490.00" from="B0B1" to="E1D1"/>
    <trip id="344" depart="491.43" from="B0A0" to="C1D1"/>
    <trip id="345" depart="492.86" from="E3D3" to="E3E2"/>
    <trip id="346" depart="494.29" from="B2B1" to="C4C3"/>
    <trip id="347" depart="495.71" from="A1A0" to="E0D0"/>
    <trip id="348" depart="497.14" from="B2B1" to="E1E2"/>
    <trip id="349" depart="498.57" from="A4A3" to="C0D0"/>
    <trip id="350" depart="500.00" from="B2B1" to="B4C4"/>
    <trip id="351" depart="501.43" from="B3A3" to="E1D1"/>
    <trip id="352" depart="502.86" from="E1E2" to="C2B2"/>
    <trip id="353" depart="504.29" from="D4D3" to="C0B0"/>
    <trip id="354" depart="505.71" from="C0C1" to="C1C2"/>
    <trip id="355" depart="507.14" from="B2B3" to="B1B2"/>
    <trip id="356" depart="508.57" from="D4D3" to="A1B1"/>
    <trip id="357" depart="510.00" from="A1A0" to="E2E3"/>
    <trip id="358" depart="511.43" from="B1B2" to="B1B0"/>
    <trip id="359" depart="512.86" from="C1B1" to="B3C3"/>
    <trip id="360" depart="514.29" from="A1A0" to="B2B1"/>
    <trip id="361" depart="515.71" from="D3C3" to="C4D4"/>
    <trip id="362" depart="517.14" from="D1D2" to="D4D3"/>
    <trip id="363" depart="518.57" from="D0C0" to="C1C0"/>
    <trip id="364" depart="520.00" from="E2D2" to="A4A3"/>
    <trip id="365" depart="521.43" from="C3D3" to="A4B4"/>
    <trip id="366" depart="522.86" from="C0C1" to="A4A3"/>
    <trip id="367" depart="524.29" from="C4B4" to="E0E1"/>
    <trip id="368" depart="525.71" from="B4B3" to="C2D2"/>
    <trip id="369" depart="527.14" from="E3D3" to="D2C2"/>
    <trip id="370" depart="528.57" from="D0C0" to="A2A3"/>
    <trip id="371" depart="530.00" from="C3C4" to="B3B2"/>
    <trip id="372" depart="531.43" from="A0A1" to="D4E4"/>
    <trip id="373" depart="532.86" from="E0D0" to="C0B0"/>
    <trip id="374" depart="534.29" from="D4D3" to="E1E0"/>
    <trip id="375" depart="535.71" from="D3D2" to="D1C1"/>
    <trip id="376" depart="537.14" from="C2B2" to="C1C2"/>
    <trip id="377" depart="538.57" from="B3A3" to="B1A1"/>
    <trip id="378" depart="540.00" from="B3B4" to="C1C0"/>
    <trip id="379" depart="541.43" from="D0E0" to="C0D0"/>
    <trip id="380" depart="542.86" from="D3C3" to="B4A4"/>
    <trip id="381" depart="544.29" from="C2C1" to="C4C3"/>
    <trip id="382" depart="545.71" from="E0E1" to="B3B2"/>
    <trip id="383" depart="547.14" from="D2C2" to="A1B1"/>
    <trip id="384" depart="548.57" from="D3D4" to="B3C3"/>
    <trip id="385" depart="550.00" from="D2C2" to="B4C4"/>
    <trip id="386" depart="551.43" from="D1E1" to="C4C3"/>
    <trip id="387" depart="552.86" from="B2C2" to="B3B4"/>
    <trip id="388" depart="554.29" from="A3A4" to="E3E4"/>
    <trip id="389" depart="555.71" from="D3E3" to="B0B1"/>
    <trip id="390" depart="557.14" from="B2B1" to="B3B4"/>
    <trip id="391" depart="558.57" from="A2A3" to="D1C1"/>
    <trip id="392" depart="560.00" from="D3E3" to="D2C2"/>
    <trip id="393" depart="561.43" from="D2D1" to="A4A3"/>
    <trip id="394" depart="562.86" from="C1D1" to="D0D1"/>
    <trip id="395" depart="564.29" from="D1D2" to="D3D2"/>
    <trip id="396" depart="565.71" from="D2E2" to="D1E1"/>
    <trip id="397" depart="567.14" from="D4C4" to="E4D4"/>
    <trip id="398" depart="568.57" from="C1C0" to="B0C0"/>
    <trip id="399" depart="570.00" from="A1A2" to="C2B2"/>
    <trip id="400" depart="571.43" from="D1C1" to="A2B2"/>
    <trip id="401" depart="572.86" from="A2A1" to="B3B2"/>
    <trip id="402" depart="574.29" from="D0C0" to="E3D3"/>
    <trip id="403" depart="575.71" from="C2B2" to="B1B0"/>
    <trip id="404" depart="577.14" from="E3D3" to="D1E1"/>
    <trip id="405" depart="578.57" from="C3B3" to="C2C3"/>
    <trip id="406" depart="580.00" from="C2B2" to="B1B0"/>
    <trip id="407" depart="581.43" from="A0A1" to="A2B2"/>
    <trip id="408" depart="582.86" from="D1E1" to="B3A3"/>
    <trip id="409" depart="584.29" from="C1B1" to="D3C3"/>
    <trip id="410" depart="585.71" from="B1C1" to="D0E0"/>
    <trip id="411" depart="587.14" from="A3B3" to="E0D0"/>
    <trip id="412" depart="588.57" from="C2B2" to="C3D3"/>
    <trip id="413" depart="590.00" from="D1D2" to="D1D0"/>
    <trip id="414" depart="591.43" from="B2A2" to="B0C0"/>
    <trip id="415" depart="592.86" from="D1C1" to="B2B1"/>
    <trip id="416" depart="594.29" from="B3A3" to="A2B2"/>
    <trip id="417" depart="595.71" from="B3A3" to="B3C3"/>
    <trip id="418" depart="597.14" from="C2C3" to="A0B0"/>
    <trip id="419" depart="598.57" from="A1B1" to="A2B2"/>
    <trip id="420" depart="600.00" from="B4C4" to="D4D3"/>
    <trip id="421" depart="601.43" from="B1C1" to="C0D0"/>
    <trip id="422" depart="602.86" from="B0C0" to="E0E1"/>
    <trip id="423" depart="604.29" from="A2B2" to="E2D2"/>
    <trip id="424" depart="605.71" from="D2D1" to="A3B3"/>
    <trip id="425" depart="607.14" from="D2C2" to="B0A0"/>
    <trip id="426" depart="608.57" from="D4D3" to="B3B4"/>
    <trip id="427" depart="610.00" from="D2D3" to="D3E3"/>
    <trip id="428" depart="611.43" from="B2C2" to="C4C3"/>
    <trip id="429" depart="612.86" from="D3C3" to="C3D3"/>
    <trip id="430" depart="614.29" from="B2B1" to="A2B2"/>
    <trip id="431" depart="615.71" from="C2B2" to="B3B2"/>
    <trip id="432" depart="617.14" from="A2B2" to="C0C1"/>
    <trip id="433" depart="618.57" from="C4B4" to="B4C4"/>
    <trip id="434" depart="620.00" from="E3D3" to="D4C4"/>
    <trip id="435" depart="621.43" from="D4C4" to="D4E4"/>
    <trip id="436" depart="622.86" from="D4D3" to="D4D3"/>
    <trip id="437" depart="624.29" from="D2D1" to="B3A3"/>
    <trip id="438" depart="625.71" from="E4E3" to="D3C3"/>
    <trip id="439" depart="627.14" from="E2E3" to="B4B3"/>
    <trip id="440" depart="628.57" from="D2C2" to="D2E2"/>
    <trip id="441" depart="630.00" from="D3E3" to="E3E2"/>
    <trip id="442" depart="631.43" from="D1E1" to="C2D2"/>
    <trip id="443" depart="632.86" from="E1D1" to="B3C3"/>
    <trip id="444" depart="634.29" from="E4D4" to="E1D1"/>
    <trip id="445" depart="635.71" from="B1B2" to="B0B1"/>
    <trip id="446" depart="637.14" from="A2A3" to="E0D0"/>
    <trip id="447" depart="638.57" from="D3D2" to="E0E1"/>
    <trip id="448" depart="640.00" from="E0D0" to="B1C1"/>
    <trip id="449" depart="641.43" from="E3E4" to="D3C3"/>
    <trip id="450" depart="642.86" from="B4B3" to="B4B3"/>
    <trip id="451" depart="644.29" from="D1D2" to="B1C1"/>
    <trip id="452" depart="645.71" from="C0B0" to="E0E1"/>
    <trip id="453" depart="647.14" from="C3C4" to="A3A4"/>
    <trip id="454" depart="648.57" from="C2C3" to="C0C1"/>
    <trip id="455" depart="650.00" from="D4E4" to="C1B1"/>
    <trip id="456" depart="651.43" from="B4A4" to="D3D4"/>
    <trip id="457" depart="652.86" from="E3E4" to="D3E3"/>
    <trip id="458" depart="654.29" from="B1B0" to="C4B4"/>
    <trip id="459" depart="655.71" from="E1E2" to="D4D3"/>
    <trip id="460" depart="657.14" from="C0B0" to="C2C3"/>
    <trip id="461" depart="658.57" from="E0D0" to="B4A4"/>
    <trip id="462" depart="660.00" from="A4B4" to="B2C2"/>
    <trip id="463" depart="661.43" from="C1B1" to="C0B0"/>
    <trip id="464" depart="662.86" from="B4C4" to="A3A2"/>
    <trip id="465" depart="664.29" from="A4A3" to="B2B3"/>
    <trip id="466" depart="665.71" from="A4B4" to="D4C4"/>
    <trip id="467" depart="667.14" from="A1B1" to="C4C3"/>
    <trip id="468" depart="668.57" from="D0E0" to="D3C3"/>
    <trip id="469" depart="670.00" from="A3B3" to="E3D3"/>
    <trip id="470" depart="671.43" from="D0E0" to="C1D1"/>
    <trip id="471" depart="672.86" from="C3D3" to="A1A0"/>
    <trip id="472" depart="674.29" from="A1B1" to="D3E3"/>
    <trip id="473" depart="675.71" from="C1C0" to="C0D0"/>
    <trip id="474" depart="677.14" from="E2D2" to="D1E1"/>
    <trip id="475" depart="678.57" from="C2C1" to="D1E1"/>
    <trip id="476" depart="680.00" from="A1A0" to="A1A0"/>
    <trip id="477" depart="681.43" from="B4C4" to="D3D2"/>
    <trip id="478" depart="682.86" from="C2C1" to="C4D4"/>
    <trip id="479" depart="684.29" from="D1C1" to="B4B3"/>
    <trip id="480" depart="685.71" from="D4E4" to="D2D3"/>
    <trip id="481" depart="687.14" from="B0A0" to="E1E0"/>
    <trip id="482" depart="688.57" from="D4C4" to="D2C2"/>
    <trip id="483" depart="690.00" from="C1C0" to="B0C0"/>
    <trip id="484" depart="691.43" from="D1D0" to="C0D0"/>
    <trip id="485" depart="692.86" from="D0E0" to="C3D3"/>
    <trip id="486" depart="694.29" from="D3D2" to="E1D1"/>
    <trip id="487" depart="695.71" from="D3E3" to="A1A2"/>
    <trip id="488" depart="697.14" from="D3C3" to="A0A1"/>
    <trip id="489" depart="698.57" from="C3C4" to="D1D0"/>
    <trip id="490" depart="700.00" from="B0A0" to="D1E1"/>
    <trip id="491" depart="701.43" from="C2C3" to="D2D3"/>
    <trip id="492" depart="702.86" from="D1D0" to="E1E0"/>
    <trip id="493" depart="704.29" from="A1A2" to="C1C2"/>
    <trip id="494" depart="705.71" from="D0E0" to="A2B2"/>
    <trip id="495" depart="707.14" from="D2D3" to="B4A4"/>
    <trip id="496" depart="708.57" from="D1E1" to="C3B3"/>
    <trip id="497" depart="710.00" from="E1D1" to="A3B3"/>
    <trip id="498" depart="711.43" from="C1B1" to="D4D3"/>
    <trip id="499" depart="712.86" from="C2D2" to="C2C3"/>
    <trip id="500" depart="714.29" from="D0D1" to="C2D2"/>
    <trip id="501" depart="715.71" from="E3D3" to="D2E2"/>
    <trip id="502" depart="717.14" from="C1C0" to="C1C0"/>
    <trip id="503" depart="718.57" from="B3B4" to="B1B2"/>
    <trip id="504" depart="720.00" from="E0D0" to="A3A4"/>
    <trip id="505" depart="721.43" from="B1C1" to="E1D1"/>