<routes>

   <!-- <vType vClass="halfWidthCar"  id="halfWidthCar1"   personCapacity="50" latAlignment="center" tau="0.5" speedDev="0.1" lcCooperative="0.0"/> -->
    
    <vType id="halfWidthCar"  personCapacity="2" width = "0.1" latAlignment="arbitrary" lcPushy="1.0" minGapLat="0.5" tau="0.5" speedDev="0.1" accel="0.0000001" />
    
    <!-- <vClass
    type="halfWidthCar"
    
    />
    
    <vType
    id="halfWidthCar1"
    vClass="halfWidthCar"
    
    width="0.1"
    
    accel="0.1"
    maxSpeed="0.1"
    speedFactor="1."
    speedDev="0.1" /> -->
    
    <flow id="halfWidthCar" begin="0" end="5000" number="300" from="entry" to="exit" departPos="last" departLane="best" />
        
<!--    <vType id="coach" vClass="coach"  maxSpeed="30" speedFactor="1." speedDev="0.1" />
    <flow id="coach" type="coach" begin="0" end="5000" number="300" from="entry" to="exit" departPos="last" departLane="best" />
 -->
</routes>
