<?xml version="1.0" encoding="UTF-8"?>

<!-- generated on Fri 20 Sep 10:15:18 2019 by Eclipse SUMO netedit Version 1.2.0
<configuration xmlns:xsi="http://www.w3.org/2001/XMLSchema-instance" xsi:noNamespaceSchemaLocation="http://sumo.dlr.de/xsd/netconvertConfiguration.xsd">

    <output>
        <output-file value="/Users/jamie/Documents/University/Third%20Year/Project/SUMO/Tutorials/Autobahn/autobahn.net.xml"/>
    </output>

    <processing>
        <offset.disable-normalization value="true"/>
    </processing>

    <junctions>
        <no-turnarounds value="true"/>
    </junctions>

</configuration>
-->

<net version="1.1" junctionCornerDetail="5" limitTurnSpeed="5.50" xmlns:xsi="http://www.w3.org/2001/XMLSchema-instance" xsi:noNamespaceSchemaLocation="http://sumo.dlr.de/xsd/net_file.xsd">

    <location netOffset="0.00,0.00" convBoundary="-14.59,12.18,118.30,60.94" origBoundary="10000000000.00,10000000000.00,-10000000000.00,-10000000000.00" projParameter="!"/>

    <edge id=":gneJ11_0" function="internal">
        <lane id=":gneJ11_0_0" index="0" speed="31.29" length="0.30" shape="6.81,12.06 7.11,12.13"/>
        <lane id=":gneJ11_0_1" index="1" speed="31.29" length="0.30" shape="6.11,15.19 6.40,15.25"/>
    </edge>
    <edge id=":gneJ9_0" function="internal">
        <lane id=":gneJ9_0_0" index="0" speed="23.31" length="4.01" shape="64.38,25.08 65.69,25.32 66.62,25.45 67.49,25.69 68.67,26.29"/>
        <lane id=":gneJ9_0_1" index="1" speed="20.64" length="4.01" shape="63.67,28.21 64.71,28.38 65.44,28.44 66.13,28.60 67.05,29.05"/>
    </edge>

    <edge id="entry" from="gneJ8" to="gneJ11" priority="-1" length="100.00">
        <lane id="entry_0" index="0" speed="31.29" length="100.00" shape="-13.54,7.50 6.81,12.06"/>
        <lane id="entry_1" index="1" speed="31.29" length="100.00" shape="-14.24,10.62 6.11,15.19"/>
    </edge>
    <edge id="exit" from="gneJ9" to="gneJ10" priority="-1">
        <lane id="exit_0" index="0" speed="31.29" length="60.34" shape="68.67,26.29 120.73,56.80"/>
        <lane id="exit_1" index="1" speed="31.29" length="60.34" shape="67.05,29.05 119.11,59.56"/>
    </edge>
    <edge id="longEdge" from="gneJ11" to="gneJ9" priority="-1">
        <lane id="longEdge_0" index="0" speed="31.29" length="58.72" shape="7.11,12.13 64.38,25.08"/>
        <lane id="longEdge_1" index="1" speed="31.29" length="58.72" shape="6.40,15.25 63.67,28.21"/>
    </edge>

    <junction id="gneJ10" type="dead_end" x="118.30" y="60.94" incLanes="exit_0 exit_1" intLanes="" shape="121.54,55.42 118.30,60.94"/>
    <junction id="gneJ11" type="priority" x="5.90" y="16.78" incLanes="entry_0 entry_1" intLanes=":gneJ11_0_0 :gneJ11_0_1" shape="6.05,16.81 7.46,10.57 7.16,10.50 5.76,16.75">
        <request index="0" response="00" foes="00" cont="0"/>
        <request index="1" response="00" foes="00" cont="0"/>
    </junction>
    <junction id="gneJ8" type="dead_end" x="-14.59" y="12.18" incLanes="" intLanes="" shape="-14.59,12.18 -13.19,5.94"/>
    <junction id="gneJ9" type="priority" x="66.24" y="30.43" incLanes="longEdge_0 longEdge_1" intLanes=":gneJ9_0_0 :gneJ9_0_1" shape="66.24,30.43 69.48,24.91 67.84,24.11 67.21,23.95 66.56,23.85 65.77,23.73 64.73,23.52 63.32,29.77 64.44,29.92 64.84,29.94 65.24,29.99 65.68,30.14">
        <request index="0" response="00" foes="00" cont="0"/>
        <request index="1" response="00" foes="00" cont="0"/>
    </junction>

    <connection from="entry" to="longEdge" fromLane="0" toLane="0" via=":gneJ11_0_0" dir="s" state="M"/>
    <connection from="entry" to="longEdge" fromLane="1" toLane="1" via=":gneJ11_0_1" dir="s" state="M"/>
    <connection from="longEdge" to="exit" fromLane="0" toLane="0" via=":gneJ9_0_0" dir="s" state="M"/>
    <connection from="longEdge" to="exit" fromLane="1" toLane="1" via=":gneJ9_0_1" dir="s" state="M"/>

    <connection from=":gneJ11_0" to="longEdge" fromLane="0" toLane="0" dir="s" state="M"/>
    <connection from=":gneJ11_0" to="longEdge" fromLane="1" toLane="1" dir="s" state="M"/>
    <connection from=":gneJ9_0" to="exit" fromLane="0" toLane="0" dir="s" state="M"/>
    <connection from=":gneJ9_0" to="exit" fromLane="1" toLane="1" dir="s" state="M"/>

</net>
