<?xml version="1.0" encoding="UTF-8"?>

<!-- generated on Tue 14 Apr 09:57:52 2020 by Eclipse SUMO netedit Version 1.2.0
<configuration xmlns:xsi="http://www.w3.org/2001/XMLSchema-instance" xsi:noNamespaceSchemaLocation="http://sumo.dlr.de/xsd/netconvertConfiguration.xsd">

    <input>
        <sumo-net-file value="/Users/jamie/Documents/University/ThirdYear/Project/GitHub/DataCollection/temp2/SUMO/test.net.xml"/>
    </input>

    <output>
        <output-file value="/Users/jamie/Documents/University/ThirdYear/Project/GitHub/DataCollection/temp2/SUMO/test.net.xml"/>
    </output>

    <processing>
        <geometry.max-grade.fix value="false"/>
        <offset.disable-normalization value="true"/>
        <lefthand value="false"/>
    </processing>

    <junctions>
        <no-turnarounds value="true"/>
        <junctions.corner-detail value="5"/>
        <junctions.limit-turn-speed value="5.5"/>
        <rectangular-lane-cut value="false"/>
    </junctions>

    <pedestrian>
        <walkingareas value="false"/>
    </pedestrian>

</configuration>
-->

<net version="1.1" junctionCornerDetail="5" limitTurnSpeed="5.50" xmlns:xsi="http://www.w3.org/2001/XMLSchema-instance" xsi:noNamespaceSchemaLocation="http://sumo.dlr.de/xsd/net_file.xsd">

    <location netOffset="0.00,0.00" convBoundary="0.00,0.00,400.00,400.00" origBoundary="0.00,0.00,400.00,400.00" projParameter="!"/>

    <edge id=":A0_0" function="internal">
        <lane id=":A0_0_0" index="0" disallow="custom2" speed="7.66" length="12.90" shape="-3.20,4.80 -2.70,1.30 -1.20,-1.20 1.30,-2.70 4.80,-3.20"/>
    </edge>
    <edge id=":A0_1" function="internal">
        <lane id=":A0_1_0" index="0" disallow="custom2" speed="3.90" length="2.58" shape="4.80,3.20 4.10,3.30 3.60,3.60 3.30,4.10 3.20,4.80"/>
    </edge>
    <edge id=":A1_0" function="internal">
        <lane id=":A1_0_0" index="0" disallow="custom2" speed="13.89" length="17.60" shape="-3.20,108.80 -3.20,91.20"/>
    </edge>
    <edge id=":A1_1" function="internal">
        <lane id=":A1_1_0" index="0" disallow="custom2" speed="6.51" length="9.03" shape="8.80,103.20 6.35,103.55 4.60,104.60 3.55,106.35 3.20,108.80"/>
    </edge>
    <edge id=":A1_2" function="internal">
        <lane id=":A1_2_0" index="0" disallow="custom2" speed="6.51" length="9.03" shape="3.20,91.20 3.55,93.65 4.60,95.40 6.35,96.45 8.80,96.80"/>
    </edge>
    <edge id=":A1_3" function="internal">
        <lane id=":A1_3_0" index="0" disallow="custom2" speed="13.89" length="17.60" shape="3.20,91.20 3.20,108.80"/>
    </edge>
    <edge id=":A2_0" function="internal">
        <lane id=":A2_0_0" index="0" disallow="custom2" speed="13.89" length="17.60" shape="-3.20,208.80 -3.20,191.20"/>
    </edge>
    <edge id=":A2_1" function="internal">
        <lane id=":A2_1_0" index="0" disallow="custom2" speed="6.51" length="9.03" shape="8.80,203.20 6.35,203.55 4.60,204.60 3.55,206.35 3.20,208.80"/>
    </edge>
    <edge id=":A2_2" function="internal">
        <lane id=":A2_2_0" index="0" disallow="custom2" speed="6.51" length="9.03" shape="3.20,191.20 3.55,193.65 4.60,195.40 6.35,196.45 8.80,196.80"/>
    </edge>
    <edge id=":A2_3" function="internal">
        <lane id=":A2_3_0" index="0" disallow="custom2" speed="13.89" length="17.60" shape="3.20,191.20 3.20,208.80"/>
    </edge>
    <edge id=":A3_0" function="internal">
        <lane id=":A3_0_0" index="0" disallow="custom2" speed="13.89" length="17.60" shape="-3.20,308.80 -3.20,291.20"/>
    </edge>
    <edge id=":A3_1" function="internal">
        <lane id=":A3_1_0" index="0" disallow="custom2" speed="6.51" length="9.03" shape="8.80,303.20 6.35,303.55 4.60,304.60 3.55,306.35 3.20,308.80"/>
    </edge>
    <edge id=":A3_2" function="internal">
        <lane id=":A3_2_0" index="0" disallow="custom2" speed="6.51" length="9.03" shape="3.20,291.20 3.55,293.65 4.60,295.40 6.35,296.45 8.80,296.80"/>
    </edge>
    <edge id=":A3_3" function="internal">
        <lane id=":A3_3_0" index="0" disallow="custom2" speed="13.89" length="17.60" shape="3.20,291.20 3.20,308.80"/>
    </edge>
    <edge id=":A4_0" function="internal">
        <lane id=":A4_0_0" index="0" disallow="custom2" speed="7.66" length="12.90" shape="4.80,403.20 1.30,402.70 -1.20,401.20 -2.70,398.70 -3.20,395.20"/>
    </edge>
    <edge id=":A4_1" function="internal">
        <lane id=":A4_1_0" index="0" disallow="custom2" speed="3.90" length="2.58" shape="3.20,395.20 3.30,395.90 3.60,396.40 4.10,396.70 4.80,396.80"/>
    </edge>
    <edge id=":B0_0" function="internal">
        <lane id=":B0_0_0" index="0" disallow="custom2" speed="6.51" length="9.03" shape="96.80,8.80 96.45,6.35 95.40,4.60 93.65,3.55 91.20,3.20"/>
    </edge>
    <edge id=":B0_1" function="internal">
        <lane id=":B0_1_0" index="0" disallow="custom2" speed="6.51" length="9.03" shape="108.80,3.20 106.35,3.55 104.60,4.60 103.55,6.35 103.20,8.80"/>
    </edge>
    <edge id=":B0_2" function="internal">
        <lane id=":B0_2_0" index="0" disallow="custom2" speed="13.89" length="17.60" shape="108.80,3.20 91.20,3.20"/>
    </edge>
    <edge id=":B0_3" function="internal">
        <lane id=":B0_3_0" index="0" disallow="custom2" speed="13.89" length="17.60" shape="91.20,-3.20 108.80,-3.20"/>
    </edge>
    <edge id=":B1_0" function="internal">
        <lane id=":B1_0_0" index="0" disallow="custom2" speed="6.51" length="9.03" shape="96.80,108.80 96.45,106.35 95.40,104.60 93.65,103.55 91.20,103.20"/>
    </edge>
    <edge id=":B1_1" function="internal">
        <lane id=":B1_1_0" index="0" disallow="custom2" speed="13.89" length="17.60" shape="96.80,108.80 96.80,91.20"/>
    </edge>
    <edge id=":B1_2" function="internal">
        <lane id=":B1_2_0" index="0" disallow="custom2" speed="6.51" length="9.03" shape="108.80,103.20 106.35,103.55 104.60,104.60 103.55,106.35 103.20,108.80"/>
    </edge>
    <edge id=":B1_3" function="internal">
        <lane id=":B1_3_0" index="0" disallow="custom2" speed="13.89" length="17.60" shape="108.80,103.20 91.20,103.20"/>
    </edge>
    <edge id=":B1_4" function="internal">
        <lane id=":B1_4_0" index="0" disallow="custom2" speed="6.51" length="9.03" shape="103.20,91.20 103.55,93.65 104.60,95.40 106.35,96.45 108.80,96.80"/>
    </edge>
    <edge id=":B1_5" function="internal">
        <lane id=":B1_5_0" index="0" disallow="custom2" speed="13.89" length="17.60" shape="103.20,91.20 103.20,108.80"/>
    </edge>
    <edge id=":B1_6" function="internal">
        <lane id=":B1_6_0" index="0" disallow="custom2" speed="6.51" length="9.03" shape="91.20,96.80 93.65,96.45 95.40,95.40 96.45,93.65 96.80,91.20"/>
    </edge>
    <edge id=":B1_7" function="internal">
        <lane id=":B1_7_0" index="0" disallow="custom2" speed="13.89" length="17.60" shape="91.20,96.80 108.80,96.80"/>
    </edge>
    <edge id=":B2_0" function="internal">
        <lane id=":B2_0_0" index="0" disallow="custom2" speed="6.51" length="9.03" shape="96.80,208.80 96.45,206.35 95.40,204.60 93.65,203.55 91.20,203.20"/>
    </edge>
    <edge id=":B2_1" function="internal">
        <lane id=":B2_1_0" index="0" disallow="custom2" speed="13.89" length="17.60" shape="96.80,208.80 96.80,191.20"/>
    </edge>
    <edge id=":B2_2" function="internal">
        <lane id=":B2_2_0" index="0" disallow="custom2" speed="6.51" length="9.03" shape="108.80,203.20 106.35,203.55 104.60,204.60 103.55,206.35 103.20,208.80"/>
    </edge>
    <edge id=":B2_3" function="internal">
        <lane id=":B2_3_0" index="0" disallow="custom2" speed="13.89" length="17.60" shape="108.80,203.20 91.20,203.20"/>
    </edge>
    <edge id=":B2_4" function="internal">
        <lane id=":B2_4_0" index="0" disallow="custom2" speed="6.51" length="9.03" shape="103.20,191.20 103.55,193.65 104.60,195.40 106.35,196.45 108.80,196.80"/>
    </edge>
    <edge id=":B2_5" function="internal">
        <lane id=":B2_5_0" index="0" disallow="custom2" speed="13.89" length="17.60" shape="103.20,191.20 103.20,208.80"/>
    </edge>
    <edge id=":B2_6" function="internal">
        <lane id=":B2_6_0" index="0" disallow="custom2" speed="6.51" length="9.03" shape="91.20,196.80 93.65,196.45 95.40,195.40 96.45,193.65 96.80,191.20"/>
    </edge>
    <edge id=":B2_7" function="internal">
        <lane id=":B2_7_0" index="0" disallow="custom2" speed="13.89" length="17.60" shape="91.20,196.80 108.80,196.80"/>
    </edge>
    <edge id=":B3_0" function="internal">
        <lane id=":B3_0_0" index="0" disallow="custom2" speed="6.51" length="9.03" shape="96.80,308.80 96.45,306.35 95.40,304.60 93.65,303.55 91.20,303.20"/>
    </edge>
    <edge id=":B3_1" function="internal">
        <lane id=":B3_1_0" index="0" disallow="custom2" speed="13.89" length="17.60" shape="96.80,308.80 96.80,291.20"/>
    </edge>
    <edge id=":B3_2" function="internal">
        <lane id=":B3_2_0" index="0" disallow="custom2" speed="6.51" length="9.03" shape="108.80,303.20 106.35,303.55 104.60,304.60 103.55,306.35 103.20,308.80"/>
    </edge>
    <edge id=":B3_3" function="internal">
        <lane id=":B3_3_0" index="0" disallow="custom2" speed="13.89" length="17.60" shape="108.80,303.20 91.20,303.20"/>
    </edge>
    <edge id=":B3_4" function="internal">
        <lane id=":B3_4_0" index="0" disallow="custom2" speed="6.51" length="9.03" shape="103.20,291.20 103.55,293.65 104.60,295.40 106.35,296.45 108.80,296.80"/>
    </edge>
    <edge id=":B3_5" function="internal">
        <lane id=":B3_5_0" index="0" disallow="custom2" speed="13.89" length="17.60" shape="103.20,291.20 103.20,308.80"/>
    </edge>
    <edge id=":B3_6" function="internal">
        <lane id=":B3_6_0" index="0" disallow="custom2" speed="6.51" length="9.03" shape="91.20,296.80 93.65,296.45 95.40,295.40 96.45,293.65 96.80,291.20"/>
    </edge>
    <edge id=":B3_7" function="internal">
        <lane id=":B3_7_0" index="0" disallow="custom2" speed="13.89" length="17.60" shape="91.20,296.80 108.80,296.80"/>
    </edge>
    <edge id=":B4_0" function="internal">
        <lane id=":B4_0_0" index="0" disallow="custom2" speed="13.89" length="17.60" shape="108.80,403.20 91.20,403.20"/>
    </edge>
    <edge id=":B4_1" function="internal">
        <lane id=":B4_1_0" index="0" disallow="custom2" speed="6.51" length="9.03" shape="103.20,391.20 103.55,393.65 104.60,395.40 106.35,396.45 108.80,396.80"/>
    </edge>
    <edge id=":B4_2" function="internal">
        <lane id=":B4_2_0" index="0" disallow="custom2" speed="6.51" length="9.03" shape="91.20,396.80 93.65,396.45 95.40,395.40 96.45,393.65 96.80,391.20"/>
    </edge>
    <edge id=":B4_3" function="internal">
        <lane id=":B4_3_0" index="0" disallow="custom2" speed="13.89" length="17.60" shape="91.20,396.80 108.80,396.80"/>
    </edge>
    <edge id=":C0_0" function="internal">
        <lane id=":C0_0_0" index="0" disallow="custom2" speed="6.51" length="9.03" shape="196.80,8.80 196.45,6.35 195.40,4.60 193.65,3.55 191.20,3.20"/>
    </edge>
    <edge id=":C0_1" function="internal">
        <lane id=":C0_1_0" index="0" disallow="custom2" speed="6.51" length="9.03" shape="208.80,3.20 206.35,3.55 204.60,4.60 203.55,6.35 203.20,8.80"/>
    </edge>
    <edge id=":C0_2" function="internal">
        <lane id=":C0_2_0" index="0" disallow="custom2" speed="13.89" length="17.60" shape="208.80,3.20 191.20,3.20"/>
    </edge>
    <edge id=":C0_3" function="internal">
        <lane id=":C0_3_0" index="0" disallow="custom2" speed="13.89" length="17.60" shape="191.20,-3.20 208.80,-3.20"/>
    </edge>
    <edge id=":C1_0" function="internal">
        <lane id=":C1_0_0" index="0" disallow="custom2" speed="6.51" length="9.03" shape="196.80,108.80 196.45,106.35 195.40,104.60 193.65,103.55 191.20,103.20"/>
    </edge>
    <edge id=":C1_1" function="internal">
        <lane id=":C1_1_0" index="0" disallow="custom2" speed="13.89" length="17.60" shape="196.80,108.80 196.80,91.20"/>
    </edge>
    <edge id=":C1_2" function="internal">
        <lane id=":C1_2_0" index="0" disallow="custom2" speed="6.51" length="9.03" shape="208.80,103.20 206.35,103.55 204.60,104.60 203.55,106.35 203.20,108.80"/>
    </edge>
    <edge id=":C1_3" function="internal">
        <lane id=":C1_3_0" index="0" disallow="custom2" speed="13.89" length="17.60" shape="208.80,103.20 191.20,103.20"/>
    </edge>
    <edge id=":C1_4" function="internal">
        <lane id=":C1_4_0" index="0" disallow="custom2" speed="6.51" length="9.03" shape="203.20,91.20 203.55,93.65 204.60,95.40 206.35,96.45 208.80,96.80"/>
    </edge>
    <edge id=":C1_5" function="internal">
        <lane id=":C1_5_0" index="0" disallow="custom2" speed="13.89" length="17.60" shape="203.20,91.20 203.20,108.80"/>
    </edge>
    <edge id=":C1_6" function="internal">
        <lane id=":C1_6_0" index="0" disallow="custom2" speed="6.51" length="9.03" shape="191.20,96.80 193.65,96.45 195.40,95.40 196.45,93.65 196.80,91.20"/>
    </edge>
    <edge id=":C1_7" function="internal">
        <lane id=":C1_7_0" index="0" disallow="custom2" speed="13.89" length="17.60" shape="191.20,96.80 208.80,96.80"/>
    </edge>
    <edge id=":C2_0" function="internal">
        <lane id=":C2_0_0" index="0" disallow="custom2" speed="6.51" length="9.03" shape="196.80,208.80 196.45,206.35 195.40,204.60 193.65,203.55 191.20,203.20"/>
    </edge>
    <edge id=":C2_1" function="internal">
        <lane id=":C2_1_0" index="0" disallow="custom2" speed="13.89" length="17.60" shape="196.80,208.80 196.80,191.20"/>
    </edge>
    <edge id=":C2_2" function="internal">
        <lane id=":C2_2_0" index="0" disallow="custom2" speed="6.51" length="9.03" shape="208.80,203.20 206.35,203.55 204.60,204.60 203.55,206.35 203.20,208.80"/>
    </edge>
    <edge id=":C2_3" function="internal">
        <lane id=":C2_3_0" index="0" disallow="custom2" speed="13.89" length="17.60" shape="208.80,203.20 191.20,203.20"/>
    </edge>
    <edge id=":C2_4" function="internal">
        <lane id=":C2_4_0" index="0" disallow="custom2" speed="6.51" length="9.03" shape="203.20,191.20 203.55,193.65 204.60,195.40 206.35,196.45 208.80,196.80"/>
    </edge>
    <edge id=":C2_5" function="internal">
        <lane id=":C2_5_0" index="0" disallow="custom2" speed="13.89" length="17.60" shape="203.20,191.20 203.20,208.80"/>
    </edge>
    <edge id=":C2_6" function="internal">
        <lane id=":C2_6_0" index="0" disallow="custom2" speed="6.51" length="9.03" shape="191.20,196.80 193.65,196.45 195.40,195.40 196.45,193.65 196.80,191.20"/>
    </edge>
    <edge id=":C2_7" function="internal">
        <lane id=":C2_7_0" index="0" disallow="custom2" speed="13.89" length="17.60" shape="191.20,196.80 208.80,196.80"/>
    </edge>
    <edge id=":C3_0" function="internal">
        <lane id=":C3_0_0" index="0" speed="6.51" length="9.03" shape="196.80,308.80 196.45,306.35 195.40,304.60 193.65,303.55 191.20,303.20"/>
    </edge>
    <edge id=":C3_1" function="internal">
        <lane id=":C3_1_0" index="0" disallow="custom2" speed="13.89" length="17.60" shape="196.80,308.80 196.80,291.20"/>
    </edge>
    <edge id=":C3_2" function="internal">
        <lane id=":C3_2_0" index="0" disallow="custom2" speed="6.51" length="9.03" shape="208.80,303.20 206.35,303.55 204.60,304.60 203.55,306.35 203.20,308.80"/>
    </edge>
    <edge id=":C3_3" function="internal">
        <lane id=":C3_3_0" index="0" speed="13.89" length="17.60" shape="208.80,303.20 191.20,303.20"/>
    </edge>
    <edge id=":C3_4" function="internal">
        <lane id=":C3_4_0" index="0" disallow="custom2" speed="6.51" length="9.03" shape="203.20,291.20 203.55,293.65 204.60,295.40 206.35,296.45 208.80,296.80"/>
    </edge>
    <edge id=":C3_5" function="internal">
        <lane id=":C3_5_0" index="0" disallow="custom2" speed="13.89" length="17.60" shape="203.20,291.20 203.20,308.80"/>
    </edge>
    <edge id=":C3_6" function="internal">
        <lane id=":C3_6_0" index="0" disallow="custom2" speed="6.51" length="9.03" shape="191.20,296.80 193.65,296.45 195.40,295.40 196.45,293.65 196.80,291.20"/>
    </edge>
    <edge id=":C3_7" function="internal">
        <lane id=":C3_7_0" index="0" disallow="custom2" speed="13.89" length="17.60" shape="191.20,296.80 208.80,296.80"/>
    </edge>
    <edge id=":C4_0" function="internal">
        <lane id=":C4_0_0" index="0" disallow="custom2" speed="13.89" length="17.60" shape="208.80,403.20 191.20,403.20"/>
    </edge>
    <edge id=":C4_1" function="internal">
        <lane id=":C4_1_0" index="0" disallow="custom2" speed="6.51" length="9.03" shape="203.20,391.20 203.55,393.65 204.60,395.40 206.35,396.45 208.80,396.80"/>
    </edge>
    <edge id=":C4_2" function="internal">
        <lane id=":C4_2_0" index="0" disallow="custom2" speed="6.51" length="9.03" shape="191.20,396.80 193.65,396.45 195.40,395.40 196.45,393.65 196.80,391.20"/>
    </edge>
    <edge id=":C4_3" function="internal">
        <lane id=":C4_3_0" index="0" disallow="custom2" speed="13.89" length="17.60" shape="191.20,396.80 208.80,396.80"/>
    </edge>
    <edge id=":D0_0" function="internal">
        <lane id=":D0_0_0" index="0" disallow="custom2" speed="6.51" length="9.03" shape="296.80,8.80 296.45,6.35 295.40,4.60 293.65,3.55 291.20,3.20"/>
    </edge>
    <edge id=":D0_1" function="internal">
        <lane id=":D0_1_0" index="0" disallow="custom2" speed="6.51" length="9.03" shape="308.80,3.20 306.35,3.55 304.60,4.60 303.55,6.35 303.20,8.80"/>
    </edge>
    <edge id=":D0_2" function="internal">
        <lane id=":D0_2_0" index="0" disallow="custom2" speed="13.89" length="17.60" shape="308.80,3.20 291.20,3.20"/>
    </edge>
    <edge id=":D0_3" function="internal">
        <lane id=":D0_3_0" index="0" disallow="custom2" speed="13.89" length="17.60" shape="291.20,-3.20 308.80,-3.20"/>
    </edge>
    <edge id=":D1_0" function="internal">
        <lane id=":D1_0_0" index="0" disallow="custom2" speed="6.51" length="9.03" shape="296.80,108.80 296.45,106.35 295.40,104.60 293.65,103.55 291.20,103.20"/>
    </edge>
    <edge id=":D1_1" function="internal">
        <lane id=":D1_1_0" index="0" disallow="custom2" speed="13.89" length="17.60" shape="296.80,108.80 296.80,91.20"/>
    </edge>
    <edge id=":D1_2" function="internal">
        <lane id=":D1_2_0" index="0" disallow="custom2" speed="6.51" length="9.03" shape="308.80,103.20 306.35,103.55 304.60,104.60 303.55,106.35 303.20,108.80"/>
    </edge>
    <edge id=":D1_3" function="internal">
        <lane id=":D1_3_0" index="0" disallow="custom2" speed="13.89" length="17.60" shape="308.80,103.20 291.20,103.20"/>
    </edge>
    <edge id=":D1_4" function="internal">
        <lane id=":D1_4_0" index="0" disallow="custom2" speed="6.51" length="9.03" shape="303.20,91.20 303.55,93.65 304.60,95.40 306.35,96.45 308.80,96.80"/>
    </edge>
    <edge id=":D1_5" function="internal">
        <lane id=":D1_5_0" index="0" disallow="custom2" speed="13.89" length="17.60" shape="303.20,91.20 303.20,108.80"/>
    </edge>
    <edge id=":D1_6" function="internal">
        <lane id=":D1_6_0" index="0" disallow="custom2" speed="6.51" length="9.03" shape="291.20,96.80 293.65,96.45 295.40,95.40 296.45,93.65 296.80,91.20"/>
    </edge>
    <edge id=":D1_7" function="internal">
        <lane id=":D1_7_0" index="0" disallow="custom2" speed="13.89" length="17.60" shape="291.20,96.80 308.80,96.80"/>
    </edge>
    <edge id=":D2_0" function="internal">
        <lane id=":D2_0_0" index="0" disallow="custom2" speed="6.51" length="9.03" shape="296.80,208.80 296.45,206.35 295.40,204.60 293.65,203.55 291.20,203.20"/>
    </edge>
    <edge id=":D2_1" function="internal">
        <lane id=":D2_1_0" index="0" disallow="custom2" speed="13.89" length="17.60" shape="296.80,208.80 296.80,191.20"/>
    </edge>
    <edge id=":D2_2" function="internal">
        <lane id=":D2_2_0" index="0" disallow="custom2" speed="6.51" length="9.03" shape="308.80,203.20 306.35,203.55 304.60,204.60 303.55,206.35 303.20,208.80"/>
    </edge>
    <edge id=":D2_3" function="internal">
        <lane id=":D2_3_0" index="0" disallow="custom2" speed="13.89" length="17.60" shape="308.80,203.20 291.20,203.20"/>
    </edge>
    <edge id=":D2_4" function="internal">
        <lane id=":D2_4_0" index="0" disallow="custom2" speed="6.51" length="9.03" shape="303.20,191.20 303.55,193.65 304.60,195.40 306.35,196.45 308.80,196.80"/>
    </edge>
    <edge id=":D2_5" function="internal">
        <lane id=":D2_5_0" index="0" disallow="custom2" speed="13.89" length="17.60" shape="303.20,191.20 303.20,208.80"/>
    </edge>
    <edge id=":D2_6" function="internal">
        <lane id=":D2_6_0" index="0" disallow="custom2" speed="6.51" length="9.03" shape="291.20,196.80 293.65,196.45 295.40,195.40 296.45,193.65 296.80,191.20"/>
    </edge>
    <edge id=":D2_7" function="internal">
        <lane id=":D2_7_0" index="0" disallow="custom2" speed="13.89" length="17.60" shape="291.20,196.80 308.80,196.80"/>
    </edge>
    <edge id=":D3_0" function="internal">
        <lane id=":D3_0_0" index="0" disallow="custom2" speed="6.51" length="9.03" shape="296.80,308.80 296.45,306.35 295.40,304.60 293.65,303.55 291.20,303.20"/>
    </edge>
    <edge id=":D3_1" function="internal">
        <lane id=":D3_1_0" index="0" disallow="custom2" speed="13.89" length="17.60" shape="296.80,308.80 296.80,291.20"/>
    </edge>
    <edge id=":D3_2" function="internal">
        <lane id=":D3_2_0" index="0" disallow="custom2" speed="6.51" length="9.03" shape="308.80,303.20 306.35,303.55 304.60,304.60 303.55,306.35 303.20,308.80"/>
    </edge>
    <edge id=":D3_3" function="internal">
        <lane id=":D3_3_0" index="0" disallow="custom2" speed="13.89" length="17.60" shape="308.80,303.20 291.20,303.20"/>
    </edge>
    <edge id=":D3_4" function="internal">
        <lane id=":D3_4_0" index="0" disallow="custom2" speed="6.51" length="9.03" shape="303.20,291.20 303.55,293.65 304.60,295.40 306.35,296.45 308.80,296.80"/>
    </edge>
    <edge id=":D3_5" function="internal">
        <lane id=":D3_5_0" index="0" disallow="custom2" speed="13.89" length="17.60" shape="303.20,291.20 303.20,308.80"/>
    </edge>
    <edge id=":D3_6" function="internal">
        <lane id=":D3_6_0" index="0" disallow="custom2" speed="6.51" length="9.03" shape="291.20,296.80 293.65,296.45 295.40,295.40 296.45,293.65 296.80,291.20"/>
    </edge>
    <edge id=":D3_7" function="internal">
        <lane id=":D3_7_0" index="0" disallow="custom2" speed="13.89" length="17.60" shape="291.20,296.80 308.80,296.80"/>
    </edge>
    <edge id=":D4_0" function="internal">
        <lane id=":D4_0_0" index="0" disallow="custom2" speed="13.89" length="17.60" shape="308.80,403.20 291.20,403.20"/>
    </edge>
    <edge id=":D4_1" function="internal">
        <lane id=":D4_1_0" index="0" disallow="custom2" speed="6.51" length="9.03" shape="303.20,391.20 303.55,393.65 304.60,395.40 306.35,396.45 308.80,396.80"/>
    </edge>
    <edge id=":D4_2" function="internal">
        <lane id=":D4_2_0" index="0" disallow="custom2" speed="6.51" length="9.03" shape="291.20,396.80 293.65,396.45 295.40,395.40 296.45,393.65 296.80,391.20"/>
    </edge>
    <edge id=":D4_3" function="internal">
        <lane id=":D4_3_0" index="0" disallow="custom2" speed="13.89" length="17.60" shape="291.20,396.80 308.80,396.80"/>
    </edge>
    <edge id=":E0_0" function="internal">
        <lane id=":E0_0_0" index="0" disallow="custom2" speed="3.90" length="2.58" shape="396.80,4.80 396.70,4.10 396.40,3.60 395.90,3.30 395.20,3.20"/>
    </edge>
    <edge id=":E0_1" function="internal">
        <lane id=":E0_1_0" index="0" disallow="custom2" speed="7.66" length="12.90" shape="395.20,-3.20 398.70,-2.70 401.20,-1.20 402.70,1.30 403.20,4.80"/>
    </edge>
    <edge id=":E1_0" function="internal">
        <lane id=":E1_0_0" index="0" disallow="custom2" speed="6.51" length="9.03" shape="396.80,108.80 396.45,106.35 395.40,104.60 393.65,103.55 391.20,103.20"/>
    </edge>
    <edge id=":E1_1" function="internal">
        <lane id=":E1_1_0" index="0" disallow="custom2" speed="13.89" length="17.60" shape="396.80,108.80 396.80,91.20"/>
    </edge>
    <edge id=":E1_2" function="internal">
        <lane id=":E1_2_0" index="0" disallow="custom2" speed="13.89" length="17.60" shape="403.20,91.20 403.20,108.80"/>
    </edge>
    <edge id=":E1_3" function="internal">
        <lane id=":E1_3_0" index="0" disallow="custom2" speed="6.51" length="9.03" shape="391.20,96.80 393.65,96.45 395.40,95.40 396.45,93.65 396.80,91.20"/>
    </edge>
    <edge id=":E2_0" function="internal">
        <lane id=":E2_0_0" index="0" disallow="custom2" speed="6.51" length="9.03" shape="396.80,208.80 396.45,206.35 395.40,204.60 393.65,203.55 391.20,203.20"/>
    </edge>
    <edge id=":E2_1" function="internal">
        <lane id=":E2_1_0" index="0" disallow="custom2" speed="13.89" length="17.60" shape="396.80,208.80 396.80,191.20"/>
    </edge>
    <edge id=":E2_2" function="internal">
        <lane id=":E2_2_0" index="0" disallow="custom2" speed="13.89" length="17.60" shape="403.20,191.20 403.20,208.80"/>
    </edge>
    <edge id=":E2_3" function="internal">
        <lane id=":E2_3_0" index="0" disallow="custom2" speed="6.51" length="9.03" shape="391.20,196.80 393.65,196.45 395.40,195.40 396.45,193.65 396.80,191.20"/>
    </edge>
    <edge id=":E3_0" function="internal">
        <lane id=":E3_0_0" index="0" disallow="custom2" speed="6.51" length="9.03" shape="396.80,308.80 396.45,306.35 395.40,304.60 393.65,303.55 391.20,303.20"/>
    </edge>
    <edge id=":E3_1" function="internal">
        <lane id=":E3_1_0" index="0" disallow="custom2" speed="13.89" length="17.60" shape="396.80,308.80 396.80,291.20"/>
    </edge>
    <edge id=":E3_2" function="internal">
        <lane id=":E3_2_0" index="0" disallow="custom2" speed="13.89" length="17.60" shape="403.20,291.20 403.20,308.80"/>
    </edge>
    <edge id=":E3_3" function="internal">
        <lane id=":E3_3_0" index="0" disallow="custom2" speed="6.51" length="9.03" shape="391.20,296.80 393.65,296.45 395.40,295.40 396.45,293.65 396.80,291.20"/>
    </edge>
    <edge id=":E4_0" function="internal">
        <lane id=":E4_0_0" index="0" disallow="custom2" speed="7.66" length="12.90" shape="403.20,395.20 402.70,398.70 401.20,401.20 398.70,402.70 395.20,403.20"/>
    </edge>
    <edge id=":E4_1" function="internal">
        <lane id=":E4_1_0" index="0" disallow="custom2" speed="3.90" length="2.58" shape="395.20,396.80 395.90,396.70 396.40,396.40 396.70,395.90 396.80,395.20"/>
    </edge>

    <edge id="A0A1" from="A0" to="A1" priority="-1">
        <lane id="A0A1_0" index="0" disallow="custom2" speed="13.89" length="86.40" shape="3.20,4.80 3.20,91.20"/>
        <lane id="A0A1_1" index="1" allow="custom2" speed="13.89" length="86.40" width="1.60" shape="0.80,4.80 0.80,91.20"/>
    </edge>
    <edge id="A0B0" from="A0" to="B0" priority="-1">
        <lane id="A0B0_0" index="0" disallow="custom2" speed="13.89" length="86.40" shape="4.80,-3.20 91.20,-3.20"/>
        <lane id="A0B0_1" index="1" allow="custom2" speed="13.89" length="86.40" width="1.60" shape="4.80,-0.80 91.20,-0.80"/>
    </edge>
    <edge id="A1A0" from="A1" to="A0" priority="-1">
        <lane id="A1A0_0" index="0" disallow="custom2" speed="13.89" length="86.40" shape="-3.20,91.20 -3.20,4.80"/>
        <lane id="A1A0_1" index="1" allow="custom2" speed="13.89" length="86.40" width="1.60" shape="-0.80,91.20 -0.80,4.80"/>
    </edge>
    <edge id="A1A2" from="A1" to="A2" priority="-1">
        <lane id="A1A2_0" index="0" disallow="custom2" speed="13.89" length="82.40" shape="3.20,108.80 3.20,191.20"/>
        <lane id="A1A2_1" index="1" allow="custom2" speed="13.89" length="82.40" width="1.60" shape="0.80,108.80 0.80,191.20"/>
    </edge>
    <edge id="A1B1" from="A1" to="B1" priority="-1">
        <lane id="A1B1_0" index="0" disallow="custom2" speed="13.89" length="82.40" shape="8.80,96.80 91.20,96.80"/>
        <lane id="A1B1_1" index="1" allow="custom2" speed="13.89" length="82.40" width="1.60" shape="8.80,99.20 91.20,99.20"/>
    </edge>
    <edge id="A2A1" from="A2" to="A1" priority="-1">
        <lane id="A2A1_0" index="0" disallow="custom2" speed="13.89" length="82.40" shape="-3.20,191.20 -3.20,108.80"/>
        <lane id="A2A1_1" index="1" allow="custom2" speed="13.89" length="82.40" width="1.60" shape="-0.80,191.20 -0.80,108.80"/>
    </edge>
    <edge id="A2A3" from="A2" to="A3" priority="-1">
        <lane id="A2A3_0" index="0" disallow="custom2" speed="13.89" length="82.40" shape="3.20,208.80 3.20,291.20"/>
        <lane id="A2A3_1" index="1" allow="custom2" speed="13.89" length="82.40" width="1.60" shape="0.80,208.80 0.80,291.20"/>
    </edge>
    <edge id="A2B2" from="A2" to="B2" priority="-1">
        <lane id="A2B2_0" index="0" disallow="custom2" speed="13.89" length="82.40" shape="8.80,196.80 91.20,196.80"/>
        <lane id="A2B2_1" index="1" allow="custom2" speed="13.89" length="82.40" width="1.60" shape="8.80,199.20 91.20,199.20"/>
    </edge>
    <edge id="A3A2" from="A3" to="A2" priority="-1">
        <lane id="A3A2_0" index="0" disallow="custom2" speed="13.89" length="82.40" shape="-3.20,291.20 -3.20,208.80"/>
        <lane id="A3A2_1" index="1" allow="custom2" speed="13.89" length="82.40" width="1.60" shape="-0.80,291.20 -0.80,208.80"/>
    </edge>
    <edge id="A3A4" from="A3" to="A4" priority="-1">
        <lane id="A3A4_0" index="0" disallow="custom2" speed="13.89" length="86.40" shape="3.20,308.80 3.20,395.20"/>
        <lane id="A3A4_1" index="1" allow="custom2" speed="13.89" length="86.40" width="1.60" shape="0.80,308.80 0.80,395.20"/>
    </edge>
    <edge id="A3B3" from="A3" to="B3" priority="-1">
        <lane id="A3B3_0" index="0" disallow="custom2" speed="13.89" length="82.40" shape="8.80,296.80 91.20,296.80"/>
        <lane id="A3B3_1" index="1" allow="custom2" speed="13.89" length="82.40" width="1.60" shape="8.80,299.20 91.20,299.20"/>
    </edge>
    <edge id="A4A3" from="A4" to="A3" priority="-1">
        <lane id="A4A3_0" index="0" disallow="custom2" speed="13.89" length="86.40" shape="-3.20,395.20 -3.20,308.80"/>