<?xml version="1.0" encoding="UTF-8"?>

<!-- generated on Tue Jan 21 11:18:50 2020 by Eclipse SUMO duarouter Version 1.2.0
<configuration xmlns:xsi="http://www.w3.org/2001/XMLSchema-instance" xsi:noNamespaceSchemaLocation="http://sumo.dlr.de/xsd/duarouterConfiguration.xsd">

    <input>
        <net-file value="net.net.xml"/>
        <route-files value="trips.trips.xml"/>
    </input>

    <output>
        <output-file value="routes.rou.xml"/>
        <alternatives-output value="routes.rou.alt.xml"/>
    </output>

</configuration>
-->

<routes xmlns:xsi="http://www.w3.org/2001/XMLSchema-instance" xsi:noNamespaceSchemaLocation="http://sumo.dlr.de/xsd/routes_file.xsd">
   
   <vTypeDistribution id="typedist1">
        <vType id="type1" length="5" maxSpeed="70" vClass="truck" probability="0.9"/>
        <vType id="type2" length="5" maxSpeed="20" vClass="evehicle" probability="0.1"/>
   </vTypeDistribution>
    
   
    <vehicle id="0" type="typedist1" depart="0.00">
        <route edges="B1B2 B2C2 C2D2 D2D1 D1D0 D0D1"/>
    </vehicle>
    <vehicle id="1" type="typedist1" depart="1.00">
        <route edges="E2D2 D2E2"/>
    </vehicle>
    <vehicle id="2" type="typedist1" depart="2.00">
        <route edges="B0A0 A0A1 A1A2 A2A3 A3B3 B3C3 C3C2"/>
    </vehicle>
    <vehicle id="3" type="typedist1" depart="3.00">
        <route edges="C3C2 C2B2 B2B3 B3A3"/>
    </vehicle>
    <vehicle id="4" type="typedist1" depart="4.00">
        <route edges="C4B4 B4B3 B3B2 B2B1 B1A1"/>
    </vehicle>
    <vehicle id="5" type="typedist1" depart="5.00">
        <route edges="B2C2 C2D2 D2D1 D1D0"/>
    </vehicle>
    <vehicle id="6" type="typedist1" depart="6.00">
        <route edges="C4D4 D4D3 D3C3 C3B3 B3B4"/>
    </vehicle>
    <vehicle id="7" type="typedist1" depart="7.00">
        <route edges="C2D2 D2D1 D1D0"/>
    </vehicle>
    <vehicle id="8" type="typedist1" depart="8.00">
        <route edges="B4B3 B3A3 A3A2 A2A1"/>
    </vehicle>
    <vehicle id="9" type="typedist1" depart="9.00">
        <route edges="A3A4 A4B4 B4B3 B3B2 B2A2"/>
    </vehicle>
    <vehicle id="10" type="typedist1" depart="10.00">
        <route edges="A0B0 B0B1 B1B2 B2B3 B3B4 B4C4"/>
    </vehicle>
    <vehicle id="11" type="typedist1" depart="11.00">
        <route edges="A2A3 A3A4 A4B4"/>
    </vehicle>
    <vehicle id="12" type="typedist1" depart="12.00">
        <route edges="B3B4 B4C4 C4C3"/>
    </vehicle>
    <vehicle id="13" type="typedist1" depart="13.00">
        <route edges="A4A3 A3A2 A2A1 A1B1 B1C1 C1D1 D1E1 E1E0"/>
    </vehicle>
    <vehicle id="14" type="typedist1" depart="14.00">
        <route edges="B0B1 B1C1 C1D1 D1E1 E1E0 E0D0"/>
    </vehicle>
    <vehicle id="15" type="typedist1" depart="15.00">
        <route edges="B4A4 A4A3 A3A2 A2B2 B2C2 C2C3"/>
    </vehicle>
    <vehicle id="16" type="typedist1" depart="16.00">
        <route edges="C4B4 B4C4 C4C3 C3C2 C2D2"/>
    </vehicle>
    <vehicle id="17" type="typedist1" depart="17.00">
        <route edges="D0E0 E0E1 E1D1 D1C1 C1B1 B1A1 A1B1"/>
    </vehicle>
    <vehicle id="18" type="typedist1" depart="18.00">
        <route edges="D2D1 D1D2 D2D3 D3E3 E3E2"/>
    </vehicle>
    <vehicle id="19" type="typedist1" depart="19.00">
        <route edges="C4B4 B4C4 C4C3 C3C2 C2D2"/>
    </vehicle>
    <vehicle id="20" type="typedist1" depart="20.00">
        <route edges="C1C2 C2C3 C3B3 B3A3 A3A4"/>
    </vehicle>
    <vehicle id="21" type="typedist1" depart="21.00">
        <route edges="D3D4 D4D3 D3D2 D2D1 D1C1 C1B1 B1B0"/>
    </vehicle>
    <vehicle id="22" type="typedist1" depart="22.00">
        <route edges="C2D2 D2C2 C2C3"/>
    </vehicle>
    <vehicle id="23" type="typedist1" depart="23.00">
        <route edges="C2C1 C1B1 B1A1 A1B1"/>
    </vehicle>
    <vehicle id="24" type="typedist1" depart="24.00">
        <route edges="D1E1 E1E0"/>
    </vehicle>
</routes>
